7OFF_VCB_A_712
     RDKit          3D

 27 30  0  0  0  0  0  0  0  0999 V2000
   42.9960  -26.7080   10.4090 C   0  0  0  0  0  0  0  0  0  0  0  0
   35.2140  -25.2050    7.6770 C   0  0  0  0  0  0  0  0  0  0  0  0
   36.4050  -24.9180    8.2980 C   0  0  0  0  0  0  0  0  0  0  0  0
   36.7370  -25.5300    9.4940 C   0  0  0  0  0  0  0  0  0  0  0  0
   35.4450  -26.4970   12.5280 C   0  0  0  0  0  0  0  0  0  0  0  0
   40.2930  -28.1310   13.3440 C   0  0  0  0  0  0  0  0  0  0  0  0
   41.5930  -27.8910   13.7690 C   0  0  0  0  0  0  0  0  0  0  0  0
   42.5560  -27.4320   12.8840 C   0  0  0  0  0  0  0  0  0  0  0  0
   40.7870  -27.1050    9.7010 C   0  0  0  0  0  0  0  0  0  0  0  0
   39.7190  -27.1640    8.8030 C   0  0  0  0  0  0  0  0  0  0  0  0
   39.9380  -26.7940    7.4840 C   0  0  0  0  0  0  0  0  0  0  0  0
   42.1940  -27.2010   11.5700 C   0  0  0  0  0  0  0  0  0  0  0  0
   41.1860  -26.3580    7.0650 C   0  0  0  0  0  0  0  0  0  0  0  0
   42.2520  -26.2900    7.9540 C   0  0  0  0  0  0  0  0  0  0  0  0
   42.0370  -26.6660    9.2640 C   0  0  0  0  0  0  0  0  0  0  0  0
   40.8720  -27.4350   11.1300 C   0  0  0  0  0  0  0  0  0  0  0  0
   39.9140  -27.8990   12.0200 C   0  0  0  0  0  0  0  0  0  0  0  0
   38.5130  -28.1550   11.5580 C   0  0  0  0  0  0  0  0  0  0  0  0
   36.2290  -27.1560   11.3650 C   0  0  1  0  0  0  0  0  0  0  0  0
   35.8760  -26.4480   10.0700 C   0  0  0  0  0  0  0  0  0  0  0  0
   34.6800  -26.7320    9.4350 C   0  0  0  0  0  0  0  0  0  0  0  0
   34.3440  -26.1080    8.2450 C   0  0  0  0  0  0  0  0  0  0  0  0
   37.6490  -27.1190   11.6990 N   0  0  0  0  0  0  0  0  0  0  0  0
   44.1740  -26.4140   10.4020 O   0  0  0  0  0  0  0  0  0  0  0  0
   36.0630  -25.6600   13.2410 O   0  0  0  0  0  0  0  0  0  0  0  0
   34.2560  -26.8150   12.6700 O   0  0  0  0  0  0  0  0  0  0  0  0
   38.2010  -29.2410   11.0630 O   0  0  0  0  0  0  0  0  0  0  0  0
  2  3  2  0
  3  4  1  0
  6  7  2  0
  7  8  1  0
  9 10  2  0
 10 11  1  0
  1 12  1  0
  8 12  2  0
 11 13  2  0
 13 14  1  0
 14 15  2  0
  9 15  1  0
  1 15  1  0
  9 16  1  0
 12 16  1  0
 16 17  2  0
  6 17  1  0
 17 18  1  0
  5 19  1  0
  4 20  2  0
 19 20  1  0
 20 21  1  0
  2 22  1  0
 21 22  2  0
 19 23  1  1
 18 23  1  0
  1 24  2  0
  5 25  1  0
  5 26  2  0
 18 27  2  0
M  END
$$$$
