7NXO_UU8_A_401
     RDKit          3D

 34 37  0  0  0  0  0  0  0  0999 V2000
   40.8200   -1.4200   11.1720 N   0  0  0  0  0  0  0  0  0  0  0  0
   40.2040   -2.1800   10.1720 C   0  0  0  0  0  0  0  0  0  0  0  0
   39.3810   -3.2590   10.5020 C   0  0  0  0  0  0  0  0  0  0  0  0
   39.1700   -3.5700   11.8410 C   0  0  0  0  0  0  0  0  0  0  0  0
   39.7640   -2.8110   12.8460 N   0  0  0  0  0  0  0  0  0  0  0  0
   40.5890   -1.7290   12.5140 C   0  0  0  0  0  0  0  0  0  0  0  0
   41.2000    0.9800   11.1470 C   0  0  0  0  0  0  0  0  0  0  0  0
   41.9660    2.1000   10.7880 C   0  0  0  0  0  0  0  0  0  0  0  0
   43.5770    0.6230    9.7510 C   0  0  0  0  0  0  0  0  0  0  0  0
   46.1680    0.6510   10.9520 C   0  0  0  0  0  0  0  0  0  0  0  0
   48.5530    0.7270   10.5630 C   0  0  0  0  0  0  0  0  0  0  0  0
   47.0450    0.4600    8.7040 C   0  0  0  0  0  0  0  0  0  0  0  0
   46.8300    0.2910    7.1930 C   0  0  0  0  0  0  0  0  0  0  0  0
   48.3410    0.5740    9.1960 C   0  0  0  0  0  0  0  0  0  0  0  0
   47.4710    0.7670   11.4370 C   0  0  0  0  0  0  0  0  0  0  0  0
   45.9570    0.5000    9.5800 C   0  0  0  0  0  0  0  0  0  0  0  0
   44.7160    0.3850    9.0370 O   0  0  0  0  0  0  0  0  0  0  0  0
   42.8060   -0.4840   10.1050 C   0  0  0  0  0  0  0  0  0  0  0  0
   43.1540    1.9160   10.0870 C   0  0  0  0  0  0  0  0  0  0  0  0
   43.9410    3.0540    9.7210 C   0  0  0  0  0  0  0  0  0  0  0  0
   44.5920    3.9330    9.4110 N   0  0  0  0  0  0  0  0  0  0  0  0
   40.0550    1.1550   11.8330 F   0  0  0  0  0  0  0  0  0  0  0  0
   41.6240   -0.3120   10.8160 C   0  0  0  0  0  0  0  0  0  0  0  0
   40.3910   -1.9030    8.9900 O   0  0  0  0  0  0  0  0  0  0  0  0
   41.1160   -1.0570   13.4000 O   0  0  0  0  0  0  0  0  0  0  0  0
   38.1260   -4.9030   12.3250 S   0  0  0  0  0  0  0  0  0  0  0  0
   37.5840   -5.5040   11.0730 O   0  0  0  0  0  0  0  0  0  0  0  0
   38.9550   -5.7960   13.1890 O   0  0  0  0  0  0  0  0  0  0  0  0
   36.9010   -4.1290   13.2400 C   0  0  0  0  0  0  0  0  0  0  0  0
   36.9870   -4.1050   14.6260 C   0  0  0  0  0  0  0  0  0  0  0  0
   36.0090   -3.4350   15.3460 C   0  0  0  0  0  0  0  0  0  0  0  0
   34.9600   -2.7880   14.6940 C   0  0  0  0  0  0  0  0  0  0  0  0
   34.8960   -2.8120   13.3070 C   0  0  0  0  0  0  0  0  0  0  0  0
   35.8710   -3.4760   12.5720 C   0  0  0  0  0  0  0  0  0  0  0  0
  1  2  1  0
  2  3  1  0
  3  4  2  0
  4  5  1  0
  1  6  1  0
  5  6  1  0
  7  8  2  0
 12 13  1  0
 12 14  1  0
 11 14  2  0
 11 15  1  0
 10 15  2  0
 12 16  2  0
 10 16  1  0
 16 17  1  0
  9 17  1  0
  9 18  1  0
  9 19  2  0
  8 19  1  0
 19 20  1  0
 20 21  3  0
  7 22  1  0
 18 23  2  0
  7 23  1  0
  1 23  1  0
  2 24  2  0
  6 25  2  0
  4 26  1  0
 26 27  2  0
 26 28  2  0
 26 29  1  0
 29 30  2  0
 30 31  1  0
 31 32  2  0
 32 33  1  0
 29 34  1  0
 33 34  2  0
M  END
$$$$
