8C5D_GTB_A_502
     RDKit          3D

 52 52  0  0  0  0  0  0  0  0999 V2000
    0.1485    1.8775    1.9215 N   0  0  0  0  0  0  0  0  0  0  0  0
    0.0216    1.2942    3.2610 C   0  0  2  0  0  0  0  0  0  0  0  0
    0.9934    0.1607    3.4833 C   0  0  0  0  0  0  0  0  0  0  0  0
    1.4040   -0.0887    4.6483 O   0  0  0  0  0  0  0  0  0  0  0  0
    1.4068   -0.6414    2.4217 O   0  0  0  0  0  0  0  0  0  0  0  0
   -1.4387    0.8881    3.5688 C   0  0  0  0  0  0  0  0  0  0  0  0
   -1.9620   -0.3655    2.8391 C   0  0  0  0  0  0  0  0  0  0  0  0
   -2.2950   -0.1012    1.4000 C   0  0  0  0  0  0  0  0  0  0  0  0
   -3.2759    0.6389    1.1170 O   0  0  0  0  0  0  0  0  0  0  0  0
   -1.5069   -0.6889    0.3555 N   0  0  0  0  0  0  0  0  0  0  0  0
   -1.7442   -0.3939   -1.0619 C   0  0  2  0  0  0  0  0  0  0  0  0
   -2.8772   -1.2269   -1.6020 C   0  0  0  0  0  0  0  0  0  0  0  0
   -3.1497   -2.3406   -1.0743 O   0  0  0  0  0  0  0  0  0  0  0  0
   -0.4617   -0.5959   -1.8847 C   0  0  0  0  0  0  0  0  0  0  0  0
    0.0947   -2.3432   -1.8936 S   0  0  0  0  0  0  0  0  0  0  0  0
   -3.6079   -0.7766   -2.7514 N   0  0  0  0  0  0  0  0  0  0  0  0
   -4.6407   -1.5891   -3.3891 C   0  0  0  0  0  0  0  0  0  0  0  0
   -4.0272   -2.7669   -4.0789 C   0  0  0  0  0  0  0  0  0  0  0  0
   -4.5865   -3.8945   -4.0181 O   0  0  0  0  0  0  0  0  0  0  0  0
   -2.8588   -2.6093   -4.8202 O   0  0  0  0  0  0  0  0  0  0  0  0
    1.7677   -2.0063   -2.5464 C   0  0  0  0  0  0  0  0  0  0  0  0
    2.6898   -1.5873   -1.4337 C   0  0  0  0  0  0  0  0  0  0  0  0
    3.0929   -0.2494   -1.3031 C   0  0  0  0  0  0  0  0  0  0  0  0
    3.9238    0.1396   -0.2478 C   0  0  0  0  0  0  0  0  0  0  0  0
    4.3736   -0.8051    0.6924 C   0  0  0  0  0  0  0  0  0  0  0  0
    5.2222   -0.4073    1.7864 N   0  0  0  0  0  4  0  0  0  0  0  0
    5.6704   -1.3371    2.6966 O   0  0  0  0  0  1  0  0  0  0  0  0
    5.5421    0.7887    1.9429 O   0  0  0  0  0  0  0  0  0  0  0  0
    3.9745   -2.1463    0.5522 C   0  0  0  0  0  0  0  0  0  0  0  0
    3.1349   -2.5319   -0.4971 C   0  0  0  0  0  0  0  0  0  0  0  0
    1.0862    2.3354    1.8501 H   0  0  0  0  0  0  0  0  0  0  0  0
    0.1342    1.1286    1.1947 H   0  0  0  0  0  0  0  0  0  0  0  0
    0.2801    2.0946    3.9910 H   0  0  0  0  0  0  0  0  0  0  0  0
    2.0214   -1.4299    2.5789 H   0  0  0  0  0  0  0  0  0  0  0  0
   -1.5105    0.6911    4.6616 H   0  0  0  0  0  0  0  0  0  0  0  0
   -2.1111    1.7502    3.3638 H   0  0  0  0  0  0  0  0  0  0  0  0
   -2.8947   -0.6992    3.3444 H   0  0  0  0  0  0  0  0  0  0  0  0
   -1.2422   -1.2053    2.9294 H   0  0  0  0  0  0  0  0  0  0  0  0
   -0.7253   -1.3281    0.6256 H   0  0  0  0  0  0  0  0  0  0  0  0
   -2.0196    0.6800   -1.1593 H   0  0  0  0  0  0  0  0  0  0  0  0
    0.3283    0.0524   -1.4537 H   0  0  0  0  0  0  0  0  0  0  0  0
   -0.6361   -0.2717   -2.9331 H   0  0  0  0  0  0  0  0  0  0  0  0
   -3.3916    0.1622   -3.1565 H   0  0  0  0  0  0  0  0  0  0  0  0
   -5.3795   -1.9214   -2.6278 H   0  0  0  0  0  0  0  0  0  0  0  0
   -5.1767   -0.9779   -4.1459 H   0  0  0  0  0  0  0  0  0  0  0  0
   -2.4380   -3.3956   -5.3007 H   0  0  0  0  0  0  0  0  0  0  0  0
    1.7236   -1.2395   -3.3500 H   0  0  0  0  0  0  0  0  0  0  0  0
    2.1552   -2.9392   -3.0078 H   0  0  0  0  0  0  0  0  0  0  0  0
    2.7598    0.4963   -2.0144 H   0  0  0  0  0  0  0  0  0  0  0  0
    4.2137    1.1802   -0.1663 H   0  0  0  0  0  0  0  0  0  0  0  0
    4.3018   -2.8958    1.2611 H   0  0  0  0  0  0  0  0  0  0  0  0
    2.8282   -3.5675   -0.5777 H   0  0  0  0  0  0  0  0  0  0  0  0
  2  1  1  0
  2  3  1  0
  3  4  2  0
  3  5  1  0
  2  6  1  0
  6  7  1  0
  7  8  1  0
  8  9  2  0
  8 10  1  0
 10 11  1  0
 11 12  1  0
 12 13  2  0
 11 14  1  0
 14 15  1  0
 12 16  1  0
 16 17  1  0
 17 18  1  0
 18 19  2  0
 18 20  1  0
 15 21  1  0
 21 22  1  0
 22 23  2  0
 23 24  1  0
 24 25  2  0
 25 26  1  0
 26 27  1  0
 26 28  2  0
 25 29  1  0
 22 30  1  0
 29 30  2  0
  1 31  1  0
  1 32  1  0
  2 33  1  1
  5 34  1  0
  6 35  1  0
  6 36  1  0
  7 37  1  0
  7 38  1  0
 10 39  1  0
 11 40  1  1
 14 41  1  0
 14 42  1  0
 16 43  1  0
 17 44  1  0
 17 45  1  0
 20 46  1  0
 21 47  1  0
 21 48  1  0
 23 49  1  0
 24 50  1  0
 29 51  1  0
 30 52  1  0
M  CHG  2  26   1  27  -1
M  END
