7NGW_UAW_A_301
     RDKit          3D

 17 18  0  0  0  0  0  0  0  0999 V2000
  -11.7360  -28.0340    4.1130 C   0  0  0  0  0  0  0  0  0  0  0  0
  -12.8010  -27.9770    1.9470 C   0  0  0  0  0  0  0  0  0  0  0  0
  -15.0390  -29.0520    1.8230 C   0  0  0  0  0  0  0  0  0  0  0  0
  -15.0710  -29.4610    0.4830 C   0  0  0  0  0  0  0  0  0  0  0  0
  -16.1290  -29.3930    2.6190 C   0  0  0  0  0  0  0  0  0  0  0  0
  -17.2410  -30.0060    2.0860 C   0  0  0  0  0  0  0  0  0  0  0  0
  -17.2430  -30.4290    0.7720 C   0  0  0  0  0  0  0  0  0  0  0  0
  -16.1730  -30.1020   -0.0140 C   0  0  0  0  0  0  0  0  0  0  0  0
  -10.5110  -27.1770    2.1240 C   0  0  0  0  0  0  0  0  0  0  0  0
   -9.2190  -27.4270    2.8280 C   0  0  0  0  0  0  0  0  0  0  0  0
  -11.6370  -27.9720    2.6440 N   0  0  0  0  0  0  0  0  0  0  0  0
  -13.9590  -28.5080    2.4440 N   0  0  0  0  0  0  0  0  0  0  0  0
  -10.4170  -28.3990    4.7200 C   0  0  0  0  0  0  0  0  0  0  0  0
   -8.1050  -27.4100    5.0760 C   0  0  0  0  0  0  0  0  0  0  0  0
   -9.4090  -27.3600    4.3240 C   0  0  0  0  0  0  0  0  0  0  0  0
  -12.6880  -27.9710    0.6090 O   0  0  0  0  0  0  0  0  0  0  0  0
  -18.3920  -31.0540    0.4380 O   0  0  0  0  0  0  0  0  0  0  0  0
  3  4  2  0
  3  5  1  0
  5  6  2  0
  6  7  1  0
  4  8  1  0
  7  8  2  0
  9 10  1  0
  2 11  1  0
  9 11  1  0
  1 11  1  0
  3 12  1  0
  2 12  1  0
  1 13  1  0
 10 15  1  0
 13 15  1  0
 14 15  1  0
  2 16  2  0
  7 17  1  0
M  END
$$$$
