7NGW_UAW_A_301
     RDKit          3D

 35 36  0  0  0  0  0  0  0  0999 V2000
    0.2707   -0.8731   -1.7406 C   0  0  0  0  0  0  0  0  0  0  0  0
   -0.0507    0.3344    0.4651 C   0  0  0  0  0  0  0  0  0  0  0  0
   -2.2828    0.0362    1.6321 C   0  0  0  0  0  0  0  0  0  0  0  0
   -2.9900   -0.8355    2.4749 C   0  0  0  0  0  0  0  0  0  0  0  0
   -2.7109    1.3717    1.5149 C   0  0  0  0  0  0  0  0  0  0  0  0
   -3.8060    1.8296    2.2542 C   0  0  0  0  0  0  0  0  0  0  0  0
   -4.4932    0.9604    3.1069 C   0  0  0  0  0  0  0  0  0  0  0  0
   -4.0840   -0.3752    3.2138 C   0  0  0  0  0  0  0  0  0  0  0  0
    2.1904    0.3924   -0.6655 C   0  0  0  0  0  0  0  0  0  0  0  0
    2.9936   -0.3046   -1.7733 C   0  0  0  0  0  0  0  0  0  0  0  0
    0.8005   -0.0869   -0.6178 N   0  0  0  0  0  0  0  0  0  0  0  0
   -1.1745   -0.4663    0.8657 N   0  0  0  0  0  0  0  0  0  0  0  0
    1.1699   -2.0864   -2.0312 C   0  0  0  0  0  0  0  0  0  0  0  0
    3.5472   -2.5372   -2.8202 C   0  0  0  0  0  0  0  0  0  0  0  0
    2.6787   -1.8115   -1.7865 C   0  0  0  0  0  0  0  0  0  0  0  0
    0.2326    1.3823    1.1083 O   0  0  0  0  0  0  0  0  0  0  0  0
   -5.5814    1.4311    3.8382 O   0  0  0  0  0  0  0  0  0  0  0  0
    0.2352   -0.2218   -2.6410 H   0  0  0  0  0  0  0  0  0  0  0  0
   -0.7687   -1.2166   -1.5587 H   0  0  0  0  0  0  0  0  0  0  0  0
   -2.6865   -1.8710    2.5657 H   0  0  0  0  0  0  0  0  0  0  0  0
   -2.2162    2.0551    0.8376 H   0  0  0  0  0  0  0  0  0  0  0  0
   -4.1260    2.8594    2.1581 H   0  0  0  0  0  0  0  0  0  0  0  0
   -4.6137   -1.0572    3.8666 H   0  0  0  0  0  0  0  0  0  0  0  0
    2.2040    1.4911   -0.8321 H   0  0  0  0  0  0  0  0  0  0  0  0
    2.6798    0.1805    0.3107 H   0  0  0  0  0  0  0  0  0  0  0  0
    4.0784   -0.1396   -1.5924 H   0  0  0  0  0  0  0  0  0  0  0  0
    2.7384    0.1444   -2.7587 H   0  0  0  0  0  0  0  0  0  0  0  0
   -1.1259   -1.4949    0.6881 H   0  0  0  0  0  0  0  0  0  0  0  0
    0.8527   -2.9323   -1.3826 H   0  0  0  0  0  0  0  0  0  0  0  0
    0.9876   -2.4001   -3.0830 H   0  0  0  0  0  0  0  0  0  0  0  0
    3.3495   -2.1456   -3.8413 H   0  0  0  0  0  0  0  0  0  0  0  0
    4.6235   -2.3951   -2.5843 H   0  0  0  0  0  0  0  0  0  0  0  0
    3.3289   -3.6264   -2.8033 H   0  0  0  0  0  0  0  0  0  0  0  0
    2.9466   -2.2193   -0.7851 H   0  0  0  0  0  0  0  0  0  0  0  0
   -6.1007    0.8258    4.4633 H   0  0  0  0  0  0  0  0  0  0  0  0
  3  4  2  0
  3  5  1  0
  5  6  2  0
  6  7  1  0
  4  8  1  0
  7  8  2  0
  9 10  1  0
  2 11  1  0
  9 11  1  0
  1 11  1  0
  3 12  1  0
  2 12  1  0
  1 13  1  0
 10 15  1  0
 13 15  1  0
 14 15  1  0
  2 16  2  0
  7 17  1  0
  1 18  1  0
  1 19  1  0
  4 20  1  0
  5 21  1  0
  6 22  1  0
  8 23  1  0
  9 24  1  0
  9 25  1  0
 10 26  1  0
 10 27  1  0
 12 28  1  0
 13 29  1  0
 13 30  1  0
 14 31  1  0
 14 32  1  0
 14 33  1  0
 15 34  1  0
 17 35  1  0
M  END
