7Z1Q_NIO_A_301
     RDKit          3D

  9  9  0  0  0  0  0  0  0  0999 V2000
   -4.5051   24.8711    0.9775 N   0  0  0  0  0  0  0  0  0  0  0  0
   -4.2146   25.6945   -0.0461 C   0  0  0  0  0  0  0  0  0  0  0  0
   -3.2593   26.6985    0.0213 C   0  0  0  0  0  0  0  0  0  0  0  0
   -2.5707   26.8421    1.2192 C   0  0  0  0  0  0  0  0  0  0  0  0
   -2.8670   26.0155    2.2864 C   0  0  0  0  0  0  0  0  0  0  0  0
   -3.8364   25.0498    2.1203 C   0  0  0  0  0  0  0  0  0  0  0  0
   -2.9767   27.5756   -1.1486 C   0  0  0  0  0  0  0  0  0  0  0  0
   -3.4838   27.3616   -2.2444 O   0  0  0  0  0  0  0  0  0  0  0  0
   -2.1771   28.5878   -0.9147 O   0  0  0  0  0  0  0  0  0  0  0  0
  1  2  2  0
  2  3  1  0
  3  4  2  0
  4  5  1  0
  1  6  1  0
  5  6  2  0
  3  7  1  0
  7  8  2  0
  7  9  1  0
M  END
