7NU0_DCL_A_1004
     RDKit          3D

 23 22  0  0  0  0  0  0  0  0999 V2000
   29.2540   -8.9477  -21.6315 N   0  0  0  0  0  0  0  0  0  0  0  0
   27.8494   -8.8951  -22.0469 C   0  0  2  0  0  0  0  0  0  0  0  0
   27.4174   -7.4531  -22.3717 C   0  0  2  0  0  0  0  0  0  0  0  0
   26.8758   -9.6512  -21.0896 C   0  0  2  0  0  0  0  0  0  0  0  0
   25.3488   -9.3995  -21.2363 C   0  0  1  0  0  0  0  0  0  0  0  0
   25.0153   -7.9427  -21.5909 C   0  0  2  0  0  0  0  0  0  0  0  0
   24.7801  -10.3273  -22.3214 C   0  0  2  0  0  0  0  0  0  0  0  0
   28.4842   -6.5567  -22.2547 O   0  0  0  0  0  0  0  0  0  0  0  0
   29.4891   -9.9270  -21.3491 H   0  0  0  0  0  0  0  0  0  0  0  0
   29.4162   -8.3214  -20.8124 H   0  0  0  0  0  0  0  0  0  0  0  0
   27.7879   -9.4281  -23.0232 H   0  0  0  0  0  0  0  0  0  0  0  0
   26.5907   -7.1478  -21.6915 H   0  0  0  0  0  0  0  0  0  0  0  0
   27.0287   -7.4231  -23.4148 H   0  0  0  0  0  0  0  0  0  0  0  0
   27.1590   -9.3446  -20.0575 H   0  0  0  0  0  0  0  0  0  0  0  0
   27.0756  -10.7445  -21.1362 H   0  0  0  0  0  0  0  0  0  0  0  0
   24.8293   -9.6635  -20.2907 H   0  0  0  0  0  0  0  0  0  0  0  0
   25.9416   -7.3420  -21.7148 H   0  0  0  0  0  0  0  0  0  0  0  0
   24.3733   -7.4877  -20.8132 H   0  0  0  0  0  0  0  0  0  0  0  0
   24.4355   -7.8931  -22.5374 H   0  0  0  0  0  0  0  0  0  0  0  0
   25.5964  -10.7316  -22.9582 H   0  0  0  0  0  0  0  0  0  0  0  0
   24.0616   -9.7764  -22.9656 H   0  0  0  0  0  0  0  0  0  0  0  0
   24.2326  -11.1759  -21.8580 H   0  0  0  0  0  0  0  0  0  0  0  0
   29.0256   -6.8700  -21.4843 H   0  0  0  0  0  0  0  0  0  0  0  0
  2  1  1  0
  2  3  1  0
  2  4  1  0
  4  5  1  0
  5  6  1  0
  5  7  1  0
  3  8  1  0
  1  9  1  0
  1 10  1  0
  2 11  1  6
  3 12  1  1
  3 13  1  0
  4 14  1  1
  4 15  1  0
  5 16  1  1
  6 17  1  6
  6 18  1  0
  6 19  1  0
  7 20  1  6
  7 21  1  0
  7 22  1  0
  8 23  1  0
M  END
