1HP0_AD3_A_1315
     RDKit          3D

 19 21  0  0  0  0  0  0  0  0999 V2000
   15.3497   24.1506    9.1719 O   0  0  0  0  0  0  0  0  0  0  0  0
   15.5709   25.5281    8.9597 C   0  0  0  0  0  0  0  0  0  0  0  0
   15.2646   26.2565   10.2644 C   0  0  1  0  0  0  0  0  0  0  0  0
   15.7097   25.5577   11.3818 O   0  0  0  0  0  0  0  0  0  0  0  0
   16.0343   27.5520   10.2201 C   0  0  1  0  0  0  0  0  0  0  0  0
   15.1800   28.5756   10.6260 O   0  0  0  0  0  0  0  0  0  0  0  0
   17.0224   27.3413   11.3520 C   0  0  1  0  0  0  0  0  0  0  0  0
   17.4351   28.5227   11.9354 O   0  0  0  0  0  0  0  0  0  0  0  0
   16.0962   26.5463   12.2533 C   0  0  2  0  0  0  0  0  0  0  0  0
   16.6577   26.1175   13.4731 N   0  0  0  0  0  0  0  0  0  0  0  0
   17.1010   26.8657   14.4988 C   0  0  0  0  0  0  0  0  0  0  0  0
   17.5631   26.0620   15.4766 N   0  0  0  0  0  0  0  0  0  0  0  0
   17.4172   24.7901   15.0798 C   0  0  0  0  0  0  0  0  0  0  0  0
   17.7303   23.5784   15.7040 C   0  0  0  0  0  0  0  0  0  0  0  0
   18.3179   23.5649   17.0056 N   0  0  0  0  0  0  0  0  0  0  0  0
   17.4628   22.4191   15.0444 N   0  0  0  0  0  0  0  0  0  0  0  0
   16.9059   22.4203   13.8100 C   0  0  0  0  0  0  0  0  0  0  0  0
   16.5950   23.6177   13.1900 C   0  0  0  0  0  0  0  0  0  0  0  0
   16.8547   24.8345   13.8358 C   0  0  0  0  0  0  0  0  0  0  0  0
  1  2  1  0
  3  2  1  6
  3  4  1  0
  3  5  1  0
  5  6  1  1
  5  7  1  0
  7  8  1  1
  4  9  1  0
  7  9  1  0
  9 10  1  1
 10 11  1  0
 11 12  2  0
 12 13  1  0
 13 14  2  0
 14 15  1  0
 14 16  1  0
 16 17  2  0
 17 18  1  0
 10 19  1  0
 13 19  1  0
 18 19  2  0
M  END
$$$$
