1HP0_AD3_A_1315
     RDKit          3D

 19 21  0  0  0  0  0  0  0  0999 V2000
   15.2418   24.5716    9.1119 O   0  0  0  0  0  0  0  0  0  0  0  0
   15.1979   25.9821    9.1281 C   0  0  0  0  0  0  0  0  0  0  0  0
   15.1605   26.4313   10.5852 C   0  0  1  0  0  0  0  0  0  0  0  0
   15.4915   25.4076   11.4669 O   0  0  0  0  0  0  0  0  0  0  0  0
   16.2178   27.4961   10.7303 C   0  0  1  0  0  0  0  0  0  0  0  0
   15.6653   28.5586   11.4432 O   0  0  0  0  0  0  0  0  0  0  0  0
   17.1940   26.8100   11.6673 C   0  0  1  0  0  0  0  0  0  0  0  0
   17.9174   27.6980   12.4382 O   0  0  0  0  0  0  0  0  0  0  0  0
   16.1607   26.0512   12.4790 C   0  0  2  0  0  0  0  0  0  0  0  0
   16.6765   25.2328   13.5044 N   0  0  0  0  0  0  0  0  0  0  0  0
   16.7690   23.8916   13.5374 C   0  0  0  0  0  0  0  0  0  0  0  0
   17.3240   23.5065   14.7033 N   0  0  0  0  0  0  0  0  0  0  0  0
   17.5904   24.6039   15.4252 C   0  0  0  0  0  0  0  0  0  0  0  0
   18.1596   24.7695   16.6918 C   0  0  0  0  0  0  0  0  0  0  0  0
   18.5733   23.6346   17.4538 N   0  0  0  0  0  0  0  0  0  0  0  0
   18.3087   26.0313   17.1777 N   0  0  0  0  0  0  0  0  0  0  0  0
   17.9199   27.1143   16.4637 C   0  0  0  0  0  0  0  0  0  0  0  0
   17.3565   26.9536   15.2101 C   0  0  0  0  0  0  0  0  0  0  0  0
   17.1853   25.6700   14.6733 C   0  0  0  0  0  0  0  0  0  0  0  0
  1  2  1  0
  3  2  1  6
  3  4  1  0
  3  5  1  0
  5  6  1  1
  5  7  1  0
  7  8  1  1
  4  9  1  0
  7  9  1  0
  9 10  1  1
 10 11  1  0
 11 12  2  0
 12 13  1  0
 13 14  2  0
 14 15  1  0
 14 16  1  0
 16 17  2  0
 17 18  1  0
 10 19  1  0
 13 19  1  0
 18 19  2  0
M  END
$$$$
