1HP0_AD3_A_1315
     RDKit          3D

 19 21  0  0  0  0  0  0  0  0999 V2000
   13.4476   19.9004   19.3491 O   0  0  0  0  0  0  0  0  0  0  0  0
   13.1772   19.0723   18.2388 C   0  0  0  0  0  0  0  0  0  0  0  0
   13.7645   19.7439   17.0016 C   0  0  1  0  0  0  0  0  0  0  0  0
   14.2991   20.9977   17.2793 O   0  0  0  0  0  0  0  0  0  0  0  0
   14.9048   18.8708   16.5434 C   0  0  1  0  0  0  0  0  0  0  0  0
   14.7977   18.7102   15.1632 O   0  0  0  0  0  0  0  0  0  0  0  0
   16.0878   19.7910   16.7795 C   0  0  1  0  0  0  0  0  0  0  0  0
   17.1492   19.5334   15.9348 O   0  0  0  0  0  0  0  0  0  0  0  0
   15.3786   21.0873   16.4348 C   0  0  2  0  0  0  0  0  0  0  0  0
   16.1611   22.2546   16.5450 N   0  0  0  0  0  0  0  0  0  0  0  0
   17.1424   22.5240   17.4242 C   0  0  0  0  0  0  0  0  0  0  0  0
   17.6355   23.7551   17.1863 N   0  0  0  0  0  0  0  0  0  0  0  0
   16.9695   24.2821   16.1494 C   0  0  0  0  0  0  0  0  0  0  0  0
   17.0806   25.5167   15.5020 C   0  0  0  0  0  0  0  0  0  0  0  0
   18.0451   26.4771   15.9347 N   0  0  0  0  0  0  0  0  0  0  0  0
   16.2518   25.7791   14.4557 N   0  0  0  0  0  0  0  0  0  0  0  0
   15.3338   24.8758   14.0372 C   0  0  0  0  0  0  0  0  0  0  0  0
   15.2216   23.6534   14.6758 C   0  0  0  0  0  0  0  0  0  0  0  0
   16.0568   23.3439   15.7583 C   0  0  0  0  0  0  0  0  0  0  0  0
  1  2  1  0
  3  2  1  1
  3  4  1  0
  3  5  1  0
  5  6  1  6
  5  7  1  0
  7  8  1  6
  4  9  1  0
  7  9  1  0
  9 10  1  1
 10 11  1  0
 11 12  2  0
 12 13  1  0
 13 14  2  0
 14 15  1  0
 14 16  1  0
 16 17  2  0
 17 18  1  0
 10 19  1  0
 13 19  1  0
 18 19  2  0
M  END
$$$$
