1HP0_AD3_A_1315
     RDKit          3D

 19 21  0  0  0  0  0  0  0  0999 V2000
   23.8376   28.7358   43.4345 O   0  0  0  0  0  0  0  0  0  0  0  0
   25.0805   28.9513   42.8017 C   0  0  0  0  0  0  0  0  0  0  0  0
   25.1321   28.0663   41.5605 C   0  0  1  0  0  0  0  0  0  0  0  0
   23.8663   27.7055   41.1105 O   0  0  0  0  0  0  0  0  0  0  0  0
   25.7665   28.8947   40.4724 C   0  0  1  0  0  0  0  0  0  0  0  0
   26.7244   28.1087   39.8345 O   0  0  0  0  0  0  0  0  0  0  0  0
   24.6086   29.0348   39.5020 C   0  0  1  0  0  0  0  0  0  0  0  0
   25.0176   29.2034   38.1941 O   0  0  0  0  0  0  0  0  0  0  0  0
   24.0042   27.6644   39.7446 C   0  0  2  0  0  0  0  0  0  0  0  0
   22.8366   27.3776   39.0086 N   0  0  0  0  0  0  0  0  0  0  0  0
   21.5801   27.2200   39.4611 C   0  0  0  0  0  0  0  0  0  0  0  0
   20.7582   26.9554   38.4266 N   0  0  0  0  0  0  0  0  0  0  0  0
   21.4877   26.9423   37.3023 C   0  0  0  0  0  0  0  0  0  0  0  0
   21.1362   26.7207   35.9670 C   0  0  0  0  0  0  0  0  0  0  0  0
   19.7802   26.4481   35.6108 N   0  0  0  0  0  0  0  0  0  0  0  0
   22.1122   26.7709   35.0208 N   0  0  0  0  0  0  0  0  0  0  0  0
   23.4009   27.0286   35.3474 C   0  0  0  0  0  0  0  0  0  0  0  0
   23.7517   27.2482   36.6679 C   0  0  0  0  0  0  0  0  0  0  0  0
   22.7758   27.2052   37.6733 C   0  0  0  0  0  0  0  0  0  0  0  0
  1  2  1  0
  3  2  1  1
  3  4  1  0
  3  5  1  0
  5  6  1  6
  5  7  1  0
  7  8  1  6
  4  9  1  0
  7  9  1  0
  9 10  1  6
 10 11  1  0
 11 12  2  0
 12 13  1  0
 13 14  2  0
 14 15  1  0
 14 16  1  0
 16 17  2  0
 17 18  1  0
 10 19  1  0
 13 19  1  0
 18 19  2  0
M  END
$$$$
