
     RDKit          3D

 32 34  0  0  0  0  0  0  0  0999 V2000
   66.8320   39.9827   22.9713 N   0  0  0  0  0  0  0  0  0  0  0  0
   67.2379   39.3271   24.1049 C   0  0  0  0  0  0  0  0  0  0  0  0
   67.4574   37.8369   23.9961 C   0  0  0  0  0  0  0  0  0  0  0  0
   67.4244   39.8737   25.2639 N   0  0  0  0  0  0  0  0  0  0  0  0
   67.2121   41.2294   25.4043 C   0  0  0  0  0  0  0  0  0  0  0  0
   67.4049   41.8171   26.4644 O   0  0  0  0  0  0  0  0  0  0  0  0
   66.7325   42.0214   24.2398 C   0  0  0  0  0  0  0  0  0  0  0  0
   66.4763   43.3935   24.3462 C   0  0  0  0  0  0  0  0  0  0  0  0
   66.0258   44.1154   23.2319 C   0  0  0  0  0  0  0  0  0  0  0  0
   65.8624   43.4342   22.0147 C   0  0  0  0  0  0  0  0  0  0  0  0
   66.1203   42.0620   21.9146 C   0  0  0  0  0  0  0  0  0  0  0  0
   66.5476   41.3456   23.0321 C   0  0  0  0  0  0  0  0  0  0  0  0
   65.7361   45.6004   23.3325 C   0  0  0  0  0  0  0  0  0  0  0  0
   65.7963   46.0905   24.7140 N   0  0  0  0  0  0  0  0  0  0  0  0
   69.3847   46.5683   26.0629 C   0  0  0  0  0  0  0  0  0  0  0  0
   68.5401   46.1164   24.6511 S   0  0  0  0  0  0  0  0  0  0  0  0
   66.9845   46.3090   25.3734 C   0  0  0  0  0  0  0  0  0  0  0  0
   67.1478   46.6879   26.6975 C   0  0  0  0  0  0  0  0  0  0  0  0
   68.5086   46.8391   27.0917 C   0  0  0  0  0  0  0  0  0  0  0  0
   70.8373   46.6393   26.1157 C   0  0  0  0  0  0  0  0  0  0  0  0
   71.5678   45.9238   25.4339 O   0  0  0  0  0  0  0  0  0  0  0  0
   71.3629   47.5653   26.9875 N   0  0  0  0  0  0  0  0  0  0  0  0
   72.5590   47.3187   27.7905 C   0  0  1  0  0  0  0  0  0  0  0  0
   73.8122   47.9021   27.1247 C   0  0  0  0  0  0  0  0  0  0  0  0
   73.5226   48.9704   26.0681 C   0  0  0  0  0  0  0  0  0  0  0  0
   74.6283   49.9840   25.9558 C   0  0  0  0  0  0  0  0  0  0  0  0
   74.5141   51.1974   25.9659 O   0  0  0  0  0  0  0  0  0  0  0  0
   75.8307   49.4030   25.7893 O   0  0  0  0  0  0  0  0  0  0  0  0
   72.3358   47.9923   29.1448 C   0  0  0  0  0  0  0  0  0  0  0  0
   71.3325   48.6038   29.4867 O   0  0  0  0  0  0  0  0  0  0  0  0
   73.3864   47.8793   29.9794 O   0  0  0  0  0  0  0  0  0  0  0  0
   64.5451   46.5578   25.3019 C   0  0  0  0  0  0  0  0  0  0  0  0
  1  2  4  0
  2  3  1  0
  2  4  4  0
  4  5  4  0
  5  6  2  0
  5  7  4  0
  7  8  4  0
  8  9  4  0
  9 10  4  0
 10 11  4  0
  1 12  4  0
  7 12  4  0
 11 12  4  0
  9 13  1  0
 13 14  1  0
 15 16  4  0
 14 17  1  0
 16 17  4  0
 17 18  4  0
 15 19  4  0
 18 19  4  0
 15 20  1  0
 20 21  2  0
 20 22  1  0
 22 23  1  0
 23 24  1  6
 24 25  1  0
 25 26  1  0
 26 27  2  0
 26 28  1  0
 23 29  1  0
 29 30  2  0
 29 31  1  0
 14 32  1  0
M  END
