7UMV_NUU_A_501
     RDKit          3D

 22 24  0  0  0  0  0  0  0  0999 V2000
  -37.1074   17.2952  -23.4318 C   0  0  0  0  0  0  0  0  0  0  0  0
  -39.1852   18.7073  -23.4424 C   0  0  0  0  0  0  0  0  0  0  0  0
  -41.1674   19.9475  -23.4873 C   0  0  0  0  0  0  0  0  0  0  0  0
  -38.5152   19.8059  -22.9567 C   0  0  0  0  0  0  0  0  0  0  0  0
  -37.0903   19.7102  -22.6787 C   0  0  0  0  0  0  0  0  0  0  0  0
  -29.8546   23.7898  -19.2978 C   0  0  0  0  0  0  0  0  0  0  0  0
  -30.3897   22.3732  -19.5348 C   0  0  1  0  0  0  0  0  0  0  0  0
  -29.5686   21.7323  -20.6219 C   0  0  0  0  0  0  0  0  0  0  0  0
  -30.1973   21.6493  -18.2032 C   0  0  0  0  0  0  0  0  0  0  0  0
  -31.8283   22.4153  -19.9022 C   0  0  0  0  0  0  0  0  0  0  0  0
  -32.4154   21.7592  -21.0734 C   0  0  0  0  0  0  0  0  0  0  0  0
  -35.0863   20.7060  -21.9390 C   0  0  0  0  0  0  0  0  0  0  0  0
  -35.1078   18.4502  -22.6427 C   0  0  0  0  0  0  0  0  0  0  0  0
  -36.4786   18.5062  -22.9205 C   0  0  0  0  0  0  0  0  0  0  0  0
  -38.5569   17.3964  -23.7146 C   0  0  0  0  0  0  0  0  0  0  0  0
  -40.5520   21.0889  -23.0001 C   0  0  0  0  0  0  0  0  0  0  0  0
  -39.2020   20.9905  -22.7380 C   0  0  0  0  0  0  0  0  0  0  0  0
  -34.4566   19.5225  -22.1703 N   0  0  0  0  0  0  0  0  0  0  0  0
  -40.5176   18.7936  -23.7044 N   0  0  0  0  0  0  0  0  0  0  0  0
  -36.4217   20.7870  -22.2011 N   0  0  0  0  0  0  0  0  0  0  0  0
  -32.5927   23.0501  -19.1674 O   0  0  0  0  0  0  0  0  0  0  0  0
  -34.1449   22.0753  -21.3173 S   0  0  0  0  0  0  0  0  0  0  0  0
  2  4  2  0
  4  5  1  0
  7  6  1  1
  7  8  1  0
  7  9  1  0
  7 10  1  0
 10 11  1  0
  1 14  1  0
  5 14  2  0
 13 14  1  0
  2 15  1  0
  1 15  1  0
  3 16  1  0
 16 17  2  0
  4 17  1  0
 13 18  2  0
 12 18  1  0
  3 19  2  0
  2 19  1  0
  5 20  1  0
 12 20  2  0
 10 21  2  0
 12 22  1  0
 11 22  1  0
M  END
$$$$
