7N6F_0I1_A_502
     RDKit          3D

 46 49  0  0  0  0  0  0  0  0999 V2000
  -16.4974   -5.9387   30.4562 C   0  0  1  0  0  0  0  0  0  0  0  0
  -17.4603   -5.4784   27.9745 C   0  0  0  0  0  0  0  0  0  0  0  0
  -17.1897   -4.5060   26.8570 C   0  0  1  0  0  0  0  0  0  0  0  0
  -15.6496   -2.6760   26.0374 C   0  0  2  0  0  0  0  0  0  0  0  0
  -18.4008   -3.5783   26.6346 C   0  0  2  0  0  0  0  0  0  0  0  0
  -17.7609    0.1633   26.8426 C   0  0  0  0  0  0  0  0  0  0  0  0
  -16.7227    2.2611   26.5361 C   0  0  0  0  0  0  0  0  0  0  0  0
  -14.8419   -0.1541   24.4443 C   0  0  0  0  0  0  0  0  0  0  0  0
  -15.2237   -1.0208   23.4044 C   0  0  0  0  0  0  0  0  0  0  0  0
  -14.2696   -1.5088   22.5064 C   0  0  0  0  0  0  0  0  0  0  0  0
  -13.4981    0.2433   24.5458 C   0  0  0  0  0  0  0  0  0  0  0  0
  -14.5457   -7.2459   30.9168 F   0  0  0  0  0  0  0  0  0  0  0  0
  -15.0128   -5.9787   30.6103 C   0  0  1  0  0  0  0  0  0  0  0  0
  -15.0267   -5.7137   29.1412 C   0  0  1  0  0  0  0  0  0  0  0  0
  -16.4943   -5.6788   29.0056 N   0  0  0  0  0  0  0  0  0  0  0  0
  -18.5528   -6.1054   28.0198 O   0  0  0  0  0  0  0  0  0  0  0  0
  -15.9191   -3.6875   27.1558 C   0  0  1  0  0  0  0  0  0  0  0  0
  -16.8519   -1.8691   25.8013 N   0  0  0  0  0  0  0  0  0  0  0  0
  -18.1098   -2.5683   25.5202 C   0  0  2  0  0  0  0  0  0  0  0  0
  -16.8278   -0.4427   25.9923 C   0  0  0  0  0  0  0  0  0  0  0  0
  -17.6906    1.4943   27.0975 N   0  0  0  0  0  0  0  0  0  0  0  0
  -15.8124    1.7025   25.6985 N   0  0  0  0  0  0  0  0  0  0  0  0
  -15.8403    0.3751   25.3996 C   0  0  0  0  0  0  0  0  0  0  0  0
  -12.9316   -1.1246   22.6282 C   0  0  0  0  0  0  0  0  0  0  0  0
  -12.0079   -1.5978   21.7556 F   0  0  0  0  0  0  0  0  0  0  0  0
  -12.5472   -0.2455   23.6445 C   0  0  0  0  0  0  0  0  0  0  0  0
  -16.9873   -6.9116   30.6841 H   0  0  0  0  0  0  0  0  0  0  0  0
  -16.9596   -5.0910   31.0092 H   0  0  0  0  0  0  0  0  0  0  0  0
  -17.0202   -5.0808   25.9190 H   0  0  0  0  0  0  0  0  0  0  0  0
  -15.3780   -3.2145   25.1036 H   0  0  0  0  0  0  0  0  0  0  0  0
  -14.7894   -2.0338   26.3272 H   0  0  0  0  0  0  0  0  0  0  0  0
  -18.6362   -3.0247   27.5703 H   0  0  0  0  0  0  0  0  0  0  0  0
  -19.2915   -4.1824   26.3552 H   0  0  0  0  0  0  0  0  0  0  0  0
  -18.5278   -0.4282   27.3242 H   0  0  0  0  0  0  0  0  0  0  0  0
  -16.6785    3.3193   26.7534 H   0  0  0  0  0  0  0  0  0  0  0  0
  -16.2592   -1.3108   23.2806 H   0  0  0  0  0  0  0  0  0  0  0  0
  -14.5701   -2.1808   21.7128 H   0  0  0  0  0  0  0  0  0  0  0  0
  -13.1839    0.9207   25.3307 H   0  0  0  0  0  0  0  0  0  0  0  0
  -14.5896   -5.1562   31.2263 H   0  0  0  0  0  0  0  0  0  0  0  0
  -14.5821   -4.7269   28.8830 H   0  0  0  0  0  0  0  0  0  0  0  0
  -14.5919   -6.5452   28.5430 H   0  0  0  0  0  0  0  0  0  0  0  0
  -16.0363   -3.1391   28.1169 H   0  0  0  0  0  0  0  0  0  0  0  0
  -15.0454   -4.3690   27.2483 H   0  0  0  0  0  0  0  0  0  0  0  0
  -18.9554   -1.8513   25.4350 H   0  0  0  0  0  0  0  0  0  0  0  0
  -18.0208   -3.1021   24.5491 H   0  0  0  0  0  0  0  0  0  0  0  0
  -11.5121    0.0579   23.7353 H   0  0  0  0  0  0  0  0  0  0  0  0
  2  3  1  0
  3  5  1  0
  8  9  2  0
  9 10  1  0
  8 11  1  0
 12 13  1  0
  1 13  1  0
 13 14  1  0
  1 15  1  0
 14 15  1  0
  2 15  1  0
  2 16  2  0
  3 17  1  0
  4 17  1  0
  4 18  1  0
  5 19  1  0
 18 19  1  0
  6 20  2  0
 18 20  1  0
  6 21  1  0
  7 21  2  0
  7 22  1  0
 20 23  1  0
 22 23  2  0
  8 23  1  0
 10 24  2  0
 24 25  1  0
 11 26  2  0
 24 26  1  0
  1 27  1  6
  1 28  1  0
  3 29  1  6
  4 30  1  6
  4 31  1  0
  5 32  1  1
  5 33  1  0
  6 34  1  0
  7 35  1  0
  9 36  1  0
 10 37  1  0
 11 38  1  0
 13 39  1  1
 14 40  1  1
 14 41  1  0
 17 42  1  1
 17 43  1  0
 19 44  1  6
 19 45  1  0
 26 46  1  0
M  END
