7N6F_0I1_A_502
     RDKit          3D

 26 29  0  0  0  0  0  0  0  0999 V2000
  -15.2492   -4.7025   17.7941 C   0  0  0  0  0  0  0  0  0  0  0  0
  -12.9273   -4.8517   18.9812 C   0  0  0  0  0  0  0  0  0  0  0  0
  -12.4627   -3.4694   19.3769 C   0  0  2  0  0  0  0  0  0  0  0  0
  -13.2491   -1.0694   19.7420 C   0  0  0  0  0  0  0  0  0  0  0  0
  -11.9796   -3.4516   20.8278 C   0  0  0  0  0  0  0  0  0  0  0  0
  -12.9227    1.3234   21.2747 C   0  0  0  0  0  0  0  0  0  0  0  0
  -12.3121    2.4276   23.1915 C   0  0  0  0  0  0  0  0  0  0  0  0
  -12.1764   -1.1783   24.0532 C   0  0  0  0  0  0  0  0  0  0  0  0
  -12.7957   -2.3401   23.6233 C   0  0  0  0  0  0  0  0  0  0  0  0
  -12.7014   -3.5157   24.4210 C   0  0  0  0  0  0  0  0  0  0  0  0
  -11.4087   -1.1710   25.2351 C   0  0  0  0  0  0  0  0  0  0  0  0
  -16.4413   -6.7686   17.9146 F   0  0  0  0  0  0  0  0  0  0  0  0
  -16.2015   -5.6459   18.6430 C   0  0  1  0  0  0  0  0  0  0  0  0
  -15.1201   -5.8015   19.7062 C   0  0  0  0  0  0  0  0  0  0  0  0
  -14.2386   -4.9860   18.8756 N   0  0  0  0  0  0  0  0  0  0  0  0
  -12.1635   -5.8127   18.8780 O   0  0  0  0  0  0  0  0  0  0  0  0
  -13.6323   -2.4770   19.2532 C   0  0  0  0  0  0  0  0  0  0  0  0
  -12.7643   -1.1233   21.1136 N   0  0  0  0  0  0  0  0  0  0  0  0
  -11.6126   -2.0294   21.2806 C   0  0  0  0  0  0  0  0  0  0  0  0
  -12.6633    0.0751   21.8619 C   0  0  0  0  0  0  0  0  0  0  0  0
  -12.7692    2.4760   21.9531 N   0  0  0  0  0  0  0  0  0  0  0  0
  -12.0532    1.2595   23.8633 N   0  0  0  0  0  0  0  0  0  0  0  0
  -12.2749    0.0561   23.2204 C   0  0  0  0  0  0  0  0  0  0  0  0
  -11.9770   -3.4507   25.5493 C   0  0  0  0  0  0  0  0  0  0  0  0
  -11.8904   -4.5780   26.3187 F   0  0  0  0  0  0  0  0  0  0  0  0
  -11.3915   -2.3157   26.0074 C   0  0  0  0  0  0  0  0  0  0  0  0
  3  2  1  1
  3  5  1  0
  8  9  2  0
  9 10  1  0
  8 11  1  0
 13 12  1  6
  1 13  1  0
 13 14  1  0
  1 15  1  0
 14 15  1  0
  2 15  1  0
  2 16  2  0
  3 17  1  0
  4 17  1  0
  4 18  1  0
  5 19  1  0
 18 19  1  0
  6 20  2  0
 18 20  1  0
  6 21  1  0
  7 21  2  0
  7 22  1  0
 20 23  1  0
 22 23  2  0
  8 23  1  0
 10 24  2  0
 24 25  1  0
 11 26  2  0
 24 26  1  0
M  END
