7N6F_0I1_A_502
     RDKit          3D

 26 29  0  0  0  0  0  0  0  0999 V2000
   -5.1620    0.7816   13.6262 C   0  0  0  0  0  0  0  0  0  0  0  0
   -2.9670   -0.5445   13.1473 C   0  0  0  0  0  0  0  0  0  0  0  0
   -2.1123   -1.7252   13.3361 C   0  0  2  0  0  0  0  0  0  0  0  0
   -0.4345   -3.2378   12.4525 C   0  0  0  0  0  0  0  0  0  0  0  0
   -1.0194   -1.5195   14.3239 C   0  0  0  0  0  0  0  0  0  0  0  0
    2.9566   -1.6025   12.6573 C   0  0  0  0  0  0  0  0  0  0  0  0
    4.5773   -2.7607   11.4482 C   0  0  0  0  0  0  0  0  0  0  0  0
    1.4492   -4.6798   11.1579 C   0  0  0  0  0  0  0  0  0  0  0  0
    1.5670   -5.2740    9.9042 C   0  0  0  0  0  0  0  0  0  0  0  0
    0.6744   -6.2735    9.5394 C   0  0  0  0  0  0  0  0  0  0  0  0
    0.4356   -5.1251   11.9803 C   0  0  0  0  0  0  0  0  0  0  0  0
   -6.5452   -0.5405   12.1543 F   0  0  0  0  0  0  0  0  0  0  0  0
   -6.3400   -0.1574   13.4754 C   0  0  1  0  0  0  0  0  0  0  0  0
   -5.3898   -1.1362   14.1796 C   0  0  0  0  0  0  0  0  0  0  0  0
   -4.2994   -0.4138   13.6019 N   0  0  0  0  0  0  0  0  0  0  0  0
   -2.4756    0.4446   12.5261 O   0  0  0  0  0  0  0  0  0  0  0  0
   -1.5246   -2.2281   12.0465 C   0  0  0  0  0  0  0  0  0  0  0  0
    0.7051   -2.3771   12.8147 N   0  0  0  0  0  0  0  0  0  0  0  0
    0.3516   -1.2886   13.7341 C   0  0  0  0  0  0  0  0  0  0  0  0
    2.0093   -2.5776   12.3194 C   0  0  0  0  0  0  0  0  0  0  0  0
    4.2378   -1.7083   12.2135 N   0  0  0  0  0  0  0  0  0  0  0  0
    3.6806   -3.7062   11.1144 N   0  0  0  0  0  0  0  0  0  0  0  0
    2.3958   -3.6397   11.5347 C   0  0  0  0  0  0  0  0  0  0  0  0
   -0.3333   -6.7061   10.3752 C   0  0  0  0  0  0  0  0  0  0  0  0
   -1.2051   -7.6853   10.0135 F   0  0  0  0  0  0  0  0  0  0  0  0
   -0.4453   -6.1135   11.6168 C   0  0  0  0  0  0  0  0  0  0  0  0
  3  2  1  6
  3  5  1  0
  8  9  2  0
  9 10  1  0
  8 11  1  0
 13 12  1  6
  1 13  1  0
 13 14  1  0
  1 15  1  0
 14 15  1  0
  2 15  1  0
  2 16  2  0
  3 17  1  0
  4 17  1  0
  4 18  1  0
  5 19  1  0
 18 19  1  0
  6 20  2  0
 18 20  1  0
  6 21  1  0
  7 21  2  0
  7 22  1  0
 20 23  1  0
 22 23  2  0
  8 23  1  0
 10 24  2  0
 24 25  1  0
 11 26  2  0
 24 26  1  0
M  END
$$$$
