1P2Y_NCT_A_440
     RDKit          3D

 12 13  0  0  0  0  0  0  0  0999 V2000
   10.8155    8.2868   69.7595 N   0  0  0  0  0  0  0  0  0  0  0  0
   10.1712    7.8982   68.6516 C   0  0  0  0  0  0  0  0  0  0  0  0
   10.8363    7.3142   67.6084 C   0  0  0  0  0  0  0  0  0  0  0  0
   12.1991    7.1401   67.7405 C   0  0  0  0  0  0  0  0  0  0  0  0
   12.9016    7.5267   68.8660 C   0  0  0  0  0  0  0  0  0  0  0  0
   12.1367    8.1135   69.8774 C   0  0  0  0  0  0  0  0  0  0  0  0
   10.8934    7.3096   65.1815 N   0  0  0  0  0  0  0  0  0  0  0  0
   10.1818    6.8638   66.3597 C   0  0  1  0  0  0  0  0  0  0  0  0
   10.3115    5.3523   66.1567 C   0  0  0  0  0  0  0  0  0  0  0  0
   10.1628    5.2362   64.6405 C   0  0  0  0  0  0  0  0  0  0  0  0
   10.1332    6.6809   64.1443 C   0  0  0  0  0  0  0  0  0  0  0  0
   11.0288    8.7304   65.0821 C   0  0  0  0  0  0  0  0  0  0  0  0
  1  2  2  0
  2  3  1  0
  3  4  2  0
  4  5  1  0
  1  6  1  0
  5  6  2  0
  8  3  1  1
  7  8  1  0
  8  9  1  0
  9 10  1  0
  7 11  1  0
 10 11  1  0
  7 12  1  0
M  END
$$$$
