1P2Y_NCT_A_440
     RDKit          3D

 12 13  0  0  0  0  0  0  0  0999 V2000
   15.1932   33.5897   44.3194 N   0  0  0  0  0  0  0  0  0  0  0  0
   16.5202   33.7511   44.4006 C   0  0  0  0  0  0  0  0  0  0  0  0
   17.3812   32.7267   44.1158 C   0  0  0  0  0  0  0  0  0  0  0  0
   16.8300   31.5180   43.7410 C   0  0  0  0  0  0  0  0  0  0  0  0
   15.4672   31.3099   43.6451 C   0  0  0  0  0  0  0  0  0  0  0  0
   14.6692   32.4140   43.9552 C   0  0  0  0  0  0  0  0  0  0  0  0
   19.3625   32.5232   45.5037 N   0  0  0  0  0  0  0  0  0  0  0  0
   18.8549   32.8421   44.1869 C   0  0  1  0  0  0  0  0  0  0  0  0
   19.5560   31.7396   43.3896 C   0  0  0  0  0  0  0  0  0  0  0  0
   20.9135   31.6767   44.0882 C   0  0  0  0  0  0  0  0  0  0  0  0
   20.7743   32.6148   45.2860 C   0  0  0  0  0  0  0  0  0  0  0  0
   18.8375   33.3473   46.5487 C   0  0  0  0  0  0  0  0  0  0  0  0
  1  2  2  0
  2  3  1  0
  3  4  2  0
  4  5  1  0
  1  6  1  0
  5  6  2  0
  8  3  1  1
  7  8  1  0
  8  9  1  0
  9 10  1  0
  7 11  1  0
 10 11  1  0
  7 12  1  0
M  END
$$$$
