1P2Y_NCT_A_440
     RDKit          3D

 12 13  0  0  0  0  0  0  0  0999 V2000
   11.8054   37.8633   64.2004 N   0  0  0  0  0  0  0  0  0  0  0  0
   10.8424   36.9327   64.2141 C   0  0  0  0  0  0  0  0  0  0  0  0
   11.0920   35.6553   64.6358 C   0  0  0  0  0  0  0  0  0  0  0  0
   12.3761   35.3608   65.0474 C   0  0  0  0  0  0  0  0  0  0  0  0
   13.3979   36.2912   65.0489 C   0  0  0  0  0  0  0  0  0  0  0  0
   13.0467   37.5674   64.6015 C   0  0  0  0  0  0  0  0  0  0  0  0
   10.6346   33.2861   64.3693 N   0  0  0  0  0  0  0  0  0  0  0  0
   10.0719   34.5837   64.6743 C   0  0  1  0  0  0  0  0  0  0  0  0
    9.5881   34.3029   66.0989 C   0  0  0  0  0  0  0  0  0  0  0  0
    9.0935   32.8628   65.9728 C   0  0  0  0  0  0  0  0  0  0  0  0
    9.4971   32.4388   64.5616 C   0  0  0  0  0  0  0  0  0  0  0  0
   11.2617   33.2071   63.0857 C   0  0  0  0  0  0  0  0  0  0  0  0
  1  2  2  0
  2  3  1  0
  3  4  2  0
  4  5  1  0
  1  6  1  0
  5  6  2  0
  8  3  1  1
  7  8  1  0
  8  9  1  0
  9 10  1  0
  7 11  1  0
 10 11  1  0
  7 12  1  0
M  END
$$$$
