
     RDKit          3D

 26 29  0  0  0  0  0  0  0  0999 V2000
   24.1914   10.3187   21.3395 C   0  0  0  0  0  0  0  0  0  0  0  0
   24.1459   11.6138   20.8272 C   0  0  0  0  0  0  0  0  0  0  0  0
   23.0130   12.4098   21.0238 C   0  0  0  0  0  0  0  0  0  0  0  0
   21.9150   11.9111   21.7371 C   0  0  0  0  0  0  0  0  0  0  0  0
   21.9720   10.6058   22.2484 C   0  0  0  0  0  0  0  0  0  0  0  0
   23.1053    9.8142   22.0501 C   0  0  0  0  0  0  0  0  0  0  0  0
   20.6778   12.7303   21.9722 C   0  0  0  0  0  0  0  0  0  0  0  0
   20.5833   14.0910   21.3183 C   0  0  0  0  0  0  0  0  0  0  0  0
   19.3505   14.8910   21.5878 C   0  0  0  0  0  0  0  0  0  0  0  0
   18.6212   12.9812   22.9446 C   0  0  0  0  0  0  0  0  0  0  0  0
   17.4851   12.7276   23.6949 C   0  0  0  0  0  0  0  0  0  0  0  0
   16.6554   13.8767   23.5394 C   0  0  0  0  0  0  0  0  0  0  0  0
   15.2878   14.0858   24.1353 C   0  0  0  0  0  0  0  0  0  0  0  0
   17.2681   11.5074   24.4523 C   0  0  0  0  0  0  0  0  0  0  0  0
   17.5760   10.2619   23.8911 C   0  0  0  0  0  0  0  0  0  0  0  0
   17.3829    9.0899   24.6266 C   0  0  0  0  0  0  0  0  0  0  0  0
   16.8796    9.1539   25.9248 C   0  0  0  0  0  0  0  0  0  0  0  0
   16.5650   10.3887   26.4890 C   0  0  0  0  0  0  0  0  0  0  0  0
   16.7577   11.5615   25.7558 C   0  0  0  0  0  0  0  0  0  0  0  0
   14.5223   12.9632   24.0627 F   0  0  0  0  0  0  0  0  0  0  0  0
   14.5771   15.0709   23.5240 F   0  0  0  0  0  0  0  0  0  0  0  0
   15.3596   14.4220   25.4525 F   0  0  0  0  0  0  0  0  0  0  0  0
   18.4362   14.2363   22.4087 N   0  0  0  0  0  0  0  0  0  0  0  0
   19.7380   12.2407   22.7248 N   0  0  0  0  0  0  0  0  0  0  0  0
   17.2530   14.7980   22.7580 N   0  0  0  0  0  0  0  0  0  0  0  0
   19.1343   16.0121   21.1411 O   0  0  0  0  0  0  0  0  0  0  0  0
  1  2  4  0
  2  3  4  0
  3  4  4  0
  4  5  4  0
  5  6  4  0
  1  6  4  0
  4  7  1  0
  7  8  1  0
  8  9  1  0
 10 11  4  0
 11 12  4  0
 12 13  1  0
 11 14  1  0
 14 15  4  0
 15 16  4  0
 16 17  4  0
 17 18  4  0
 18 19  4  0
 14 19  4  0
 13 20  1  0
 13 21  1  0
 13 22  1  0
 10 23  4  0
  9 23  1  0
  7 24  2  0
 10 24  1  0
 12 25  4  0
 23 25  4  0
  9 26  2  0
M  END
