1S19_MC9_A_500
     RDKit          3D

 30 33  0  0  0  0  0  0  0  0999 V2000
   13.1007   17.5068   36.0648 O   0  0  0  0  0  0  0  0  0  0  0  0
   17.0111   18.2095   35.1686 O   0  0  0  0  0  0  0  0  0  0  0  0
   16.1733   18.0315   34.0837 C   0  0  1  0  0  0  0  0  0  0  0  0
   14.8756   17.3161   34.4743 C   0  0  0  0  0  0  0  0  0  0  0  0
   14.1260   18.1972   35.4181 C   0  0  1  0  0  0  0  0  0  0  0  0
   13.6014   19.4014   34.6697 C   0  0  0  0  0  0  0  0  0  0  0  0
   14.8097   20.1326   34.1601 C   0  0  0  0  0  0  0  0  0  0  0  0
   14.9672   21.4244   34.3251 C   0  0  0  0  0  0  0  0  0  0  0  0
   14.0726   22.3561   34.9628 C   0  0  0  0  0  0  0  0  0  0  0  0
   13.6022   23.4208   34.2758 C   0  0  0  0  0  0  0  0  0  0  0  0
   13.8527   23.4723   32.7882 C   0  0  0  0  0  0  0  0  0  0  0  0
   15.7925   19.3273   33.4493 C   0  0  0  0  0  0  0  0  0  0  0  0
   13.4797   24.7981   32.2154 C   0  0  0  0  0  0  0  0  0  0  0  0
   12.1787   25.3718   32.6414 C   0  0  0  0  0  0  0  0  0  0  0  0
   11.6949   24.9865   33.9980 C   0  0  1  0  0  0  0  0  0  0  0  0
   12.8704   24.5194   34.8736 C   0  0  1  0  0  0  0  0  0  0  0  0
   12.1004   24.1783   36.1251 C   0  0  0  0  0  0  0  0  0  0  0  0
   11.1775   25.3785   36.2332 C   0  0  0  0  0  0  0  0  0  0  0  0
   11.2612   26.0870   34.8943 C   0  0  2  0  0  0  0  0  0  0  0  0
   10.7384   23.8315   33.9274 C   0  0  0  0  0  0  0  0  0  0  0  0
   16.3125   19.7339   32.3037 C   0  0  0  0  0  0  0  0  0  0  0  0
   10.0666   26.8680   34.5414 C   0  0  1  0  0  0  0  0  0  0  0  0
    8.8919   25.9646   34.6938 C   0  0  0  0  0  0  0  0  0  0  0  0
    6.4888   25.4576   34.9018 C   0  0  2  0  0  0  0  0  0  0  0  0
    9.8181   28.1279   35.2647 C   0  0  0  0  0  0  0  0  0  0  0  0
    6.2947   25.2005   33.4293 C   0  0  1  0  0  0  0  0  0  0  0  0
    5.0531   24.5497   32.9367 C   0  0  0  0  0  0  0  0  0  0  0  0
    5.2513   26.0690   32.7740 C   0  0  0  0  0  0  0  0  0  0  0  0
    5.3639   26.0517   35.4779 O   0  0  0  0  0  0  0  0  0  0  0  0
    7.6789   26.3771   35.0228 C   0  0  0  0  0  0  0  0  0  0  0  0
  3  2  1  1
  4  3  1  6
  5  1  1  6
  4  5  1  0
  5  6  1  0
  6  7  1  6
  7  8  2  0
  8  9  1  0
  9 10  2  0
 11 10  1  6
  3 12  1  0
  7 12  1  0
 13 11  1  1
 14 13  1  6
 14 15  1  0
 16 10  1  6
 15 16  1  0
 17 16  1  6
 18 17  1  1
 15 19  1  0
 19 18  1  0
 15 20  1  6
 12 21  2  0
 19 22  1  6
 22 23  1  1
 25 22  1  1
 26 24  1  1
 27 26  1  6
 26 28  1  0
 28 27  1  1
 24 29  1  6
 23 30  2  0
 24 30  1  0
M  END
$$$$
