5SAK_ZRY_A_404
     RDKit          3D

 30 32  0  0  0  0  0  0  0  0999 V2000
   28.2385    3.9706   56.3846 N   0  0  0  0  0  0  0  0  0  0  0  0
   26.1593    3.8282   59.2101 C   0  0  0  0  0  0  0  0  0  0  0  0
   23.7991    1.3903   59.4529 C   0  0  0  0  0  0  0  0  0  0  0  0
   25.3319    3.2748   60.0451 N   0  0  0  0  0  0  0  0  0  0  0  0
   23.7563    0.9043   58.1324 C   0  0  0  0  0  0  0  0  0  0  0  0
   27.3837    5.4536   58.1525 C   0  0  0  0  0  0  0  0  0  0  0  0
   26.1811    6.2674   60.0894 C   0  0  0  0  0  0  0  0  0  0  0  0
   26.5379    5.2373   59.2201 C   0  0  0  0  0  0  0  0  0  0  0  0
   25.0155    1.9049   60.0235 N   0  0  0  0  0  0  0  0  0  0  0  0
   26.7101    7.5477   59.8493 C   0  0  0  0  0  0  0  0  0  0  0  0
   27.5752    7.7706   58.7566 C   0  0  0  0  0  0  0  0  0  0  0  0
   27.9200    6.7156   57.8932 C   0  0  0  0  0  0  0  0  0  0  0  0
   26.7790    3.1622   58.1055 N   0  0  0  0  0  0  0  0  0  0  0  0
   27.5387    4.1780   57.4530 C   0  0  0  0  0  0  0  0  0  0  0  0
   22.5625    0.4025   57.6046 C   0  0  0  0  0  0  0  0  0  0  0  0
   21.4073    0.3713   58.3896 C   0  0  0  0  0  0  0  0  0  0  0  0
   21.4449    0.8374   59.7063 C   0  0  0  0  0  0  0  0  0  0  0  0
   22.6364    1.3403   60.2378 C   0  0  0  0  0  0  0  0  0  0  0  0
   28.7777    4.7374   55.9253 H   0  0  0  0  0  0  0  0  0  0  0  0
   24.6434    0.9002   57.5133 H   0  0  0  0  0  0  0  0  0  0  0  0
   25.5173    6.0883   60.9251 H   0  0  0  0  0  0  0  0  0  0  0  0
   25.7664    1.2271   60.2836 H   0  0  0  0  0  0  0  0  0  0  0  0
   26.4518    8.3676   60.5068 H   0  0  0  0  0  0  0  0  0  0  0  0
   27.9757    8.7606   58.5815 H   0  0  0  0  0  0  0  0  0  0  0  0
   28.5817    6.8837   57.0541 H   0  0  0  0  0  0  0  0  0  0  0  0
   26.6376    2.1803   57.7805 H   0  0  0  0  0  0  0  0  0  0  0  0
   22.5347    0.0326   56.5878 H   0  0  0  0  0  0  0  0  0  0  0  0
   20.4846   -0.0183   57.9795 H   0  0  0  0  0  0  0  0  0  0  0  0
   20.5507    0.8085   60.3155 H   0  0  0  0  0  0  0  0  0  0  0  0
   22.6527    1.6997   61.2591 H   0  0  0  0  0  0  0  0  0  0  0  0
  2  4  2  0
  3  5  2  0
  7  8  2  0
  6  8  1  0
  2  8  1  0
  4  9  1  0
  3  9  1  0
  7 10  1  0
 10 11  2  0
  6 12  2  0
 11 12  1  0
  2 13  1  0
 13 14  1  0
  1 14  2  0
  6 14  1  0
  5 15  1  0
 15 16  2  0
 16 17  1  0
 17 18  2  0
  3 18  1  0
  1 19  1  0
  5 20  1  0
  7 21  1  0
  9 22  1  0
 10 23  1  0
 11 24  1  0
 12 25  1  0
 13 26  1  0
 15 27  1  0
 16 28  1  0
 17 29  1  0
 18 30  1  0
M  END
