6XG5_TOP_A_303
     RDKit          3D

 21 22  0  0  0  0  0  0  0  0999 V2000
  -10.5234   27.3887   16.7987 C   0  0  0  0  0  0  0  0  0  0  0  0
  -10.1294   26.8572   17.9699 N   0  0  0  0  0  0  0  0  0  0  0  0
   -8.8490   26.4313   18.0597 C   0  0  0  0  0  0  0  0  0  0  0  0
   -8.4410   25.9018   19.2145 N   0  0  0  0  0  0  0  0  0  0  0  0
   -7.9583   26.4898   17.0565 N   0  0  0  0  0  0  0  0  0  0  0  0
   -8.3578   27.0583   15.8996 C   0  0  0  0  0  0  0  0  0  0  0  0
   -7.4296   27.1376   14.9224 N   0  0  0  0  0  0  0  0  0  0  0  0
   -9.6871   27.5311   15.7016 C   0  0  0  0  0  0  0  0  0  0  0  0
  -10.1225   28.2181   14.4028 C   0  0  0  0  0  0  0  0  0  0  0  0
  -11.5780   28.6242   14.2781 C   0  0  0  0  0  0  0  0  0  0  0  0
  -12.1004   29.6937   15.0023 C   0  0  0  0  0  0  0  0  0  0  0  0
  -13.4522   30.0204   14.9271 C   0  0  0  0  0  0  0  0  0  0  0  0
  -14.0651   31.0088   15.6492 O   0  0  0  0  0  0  0  0  0  0  0  0
  -13.2334   31.8918   16.4011 C   0  0  0  0  0  0  0  0  0  0  0  0
  -14.3073   29.2882   14.0986 C   0  0  0  0  0  0  0  0  0  0  0  0
  -15.6395   29.6285   13.9533 O   0  0  0  0  0  0  0  0  0  0  0  0
  -16.4811   29.3278   15.0543 C   0  0  0  0  0  0  0  0  0  0  0  0
  -13.7686   28.2600   13.3263 C   0  0  0  0  0  0  0  0  0  0  0  0
  -14.6766   27.6121   12.5434 O   0  0  0  0  0  0  0  0  0  0  0  0
  -14.1804   26.7100   11.5563 C   0  0  0  0  0  0  0  0  0  0  0  0
  -12.4184   27.9351   13.4142 C   0  0  0  0  0  0  0  0  0  0  0  0
  1  2  2  0
  2  3  1  0
  3  4  1  0
  3  5  2  0
  5  6  1  0
  6  7  1  0
  1  8  1  0
  6  8  2  0
  8  9  1  0
  9 10  1  0
 10 11  2  0
 11 12  1  0
 12 13  1  0
 13 14  1  0
 12 15  2  0
 15 16  1  0
 16 17  1  0
 15 18  1  0
 18 19  1  0
 19 20  1  0
 10 21  1  0
 18 21  2  0
M  END
