
     RDKit          3D

 27 29  0  0  0  0  0  0  0  0999 V2000
   -1.4603   -6.3750  -13.1109 N   0  0  0  0  0  0  0  0  0  0  0  0
   -1.6996   -6.9107  -14.3459 C   0  0  0  0  0  0  0  0  0  0  0  0
   -2.8135   -7.2975  -14.6824 O   0  0  0  0  0  0  0  0  0  0  0  0
   -0.6789   -7.0034  -15.2458 N   0  0  0  0  0  0  0  0  0  0  0  0
    0.2726   -6.0344  -15.3263 C   0  0  0  0  0  0  0  0  0  0  0  0
    0.8147   -5.6968  -16.3649 O   0  0  0  0  0  0  0  0  0  0  0  0
    0.5391   -5.3590  -14.0086 C   0  0  0  0  0  0  0  0  0  0  0  0
    1.5712   -4.5855  -13.8697 N   0  0  0  0  0  0  0  0  0  0  0  0
    1.7928   -3.9835  -12.6174 C   0  0  0  0  0  0  0  0  0  0  0  0
    2.8983   -3.1302  -12.5203 C   0  0  0  0  0  0  0  0  0  0  0  0
    3.2116   -2.4669  -11.3282 C   0  0  0  0  0  0  0  0  0  0  0  0
    4.4098   -1.5597  -11.2809 C   0  0  0  0  0  0  0  0  0  0  0  0
    2.3871   -2.6621  -10.2096 C   0  0  0  0  0  0  0  0  0  0  0  0
    2.6638   -1.9641   -8.9042 C   0  0  0  0  0  0  0  0  0  0  0  0
    1.2765   -3.5237  -10.3090 C   0  0  0  0  0  0  0  0  0  0  0  0
    0.9589   -4.2066  -11.4964 C   0  0  0  0  0  0  0  0  0  0  0  0
   -0.1531   -5.0672  -11.6334 N   0  0  0  0  0  0  0  0  0  0  0  0
   -0.4216   -5.6317  -12.8771 C   0  0  0  0  0  0  0  0  0  0  0  0
   -0.9756   -5.4550  -10.4677 C   0  0  0  0  0  0  0  0  0  0  0  0
   -2.3110   -4.6756  -10.4397 C   0  0  2  0  0  0  0  0  0  0  0  0
   -2.0950   -3.3113  -10.8488 O   0  0  0  0  0  0  0  0  0  0  0  0
   -2.9275   -4.6854   -9.0234 C   0  0  2  0  0  0  0  0  0  0  0  0
   -2.0723   -3.9740   -8.1128 O   0  0  0  0  0  0  0  0  0  0  0  0
   -3.1600   -6.0957   -8.4347 C   0  0  2  0  0  0  0  0  0  0  0  0
   -3.6557   -6.9392   -9.4905 O   0  0  0  0  0  0  0  0  0  0  0  0
   -4.0872   -6.1721   -7.2181 C   0  0  0  0  0  0  0  0  0  0  0  0
   -5.2177   -5.3255   -7.3504 O   0  0  0  0  0  0  0  0  0  0  0  0
  1  2  4  0
  2  3  2  0
  2  4  4  0
  4  5  4  0
  5  6  2  0
  5  7  4  0
  7  8  4  0
  8  9  4  0
  9 10  4  0
 10 11  4  0
 11 12  1  0
 11 13  4  0
 13 14  1  0
 13 15  4  0
  9 16  4  0
 15 16  4  0
 16 17  4  0
  1 18  4  0
  7 18  1  0
 17 18  4  0
 17 19  1  0
 19 20  1  0
 20 21  1  1
 20 22  1  0
 22 23  1  1
 22 24  1  0
 24 25  1  6
 24 26  1  0
 26 27  1  0
M  END
