7CUO_PHB_A_304
     RDKit          3D

 16 16  0  0  0  0  0  0  0  0999 V2000
   -1.3888   -1.1959   -0.5637 C   0  0  0  0  0  0  0  0  0  0  0  0
   -2.0179   -1.7566    0.3742 O   0  0  0  0  0  0  0  0  0  0  0  0
   -1.7176   -1.5000   -1.8823 O   0  0  0  0  0  0  0  0  0  0  0  0
   -0.3122   -0.2248   -0.2685 C   0  0  0  0  0  0  0  0  0  0  0  0
    0.0273    0.0890    1.0606 C   0  0  0  0  0  0  0  0  0  0  0  0
    1.0457    1.0076    1.3331 C   0  0  0  0  0  0  0  0  0  0  0  0
    1.7376    1.6242    0.2830 C   0  0  0  0  0  0  0  0  0  0  0  0
    1.4059    1.3174   -1.0397 C   0  0  0  0  0  0  0  0  0  0  0  0
    0.3881    0.3993   -1.3163 C   0  0  0  0  0  0  0  0  0  0  0  0
    2.7539    2.5408    0.5428 O   0  0  0  0  0  0  0  0  0  0  0  0
   -2.4529   -2.1634   -2.0954 H   0  0  0  0  0  0  0  0  0  0  0  0
   -0.4932   -0.3745    1.8894 H   0  0  0  0  0  0  0  0  0  0  0  0
    1.2959    1.2392    2.3606 H   0  0  0  0  0  0  0  0  0  0  0  0
    1.9377    1.7912   -1.8551 H   0  0  0  0  0  0  0  0  0  0  0  0
    0.1507    0.1792   -2.3496 H   0  0  0  0  0  0  0  0  0  0  0  0
    3.0178    2.7842    1.4905 H   0  0  0  0  0  0  0  0  0  0  0  0
  1  2  2  0
  1  3  1  0
  1  4  1  0
  4  5  2  0
  5  6  1  0
  6  7  2  0
  7  8  1  0
  4  9  1  0
  8  9  2  0
  7 10  1  0
  3 11  1  0
  5 12  1  0
  6 13  1  0
  8 14  1  0
  9 15  1  0
 10 16  1  0
M  END
