1HQ2_PH2_A_181
     RDKit          3D

 14 15  0  0  0  0  0  0  0  0999 V2000
   -7.0724    7.3853   17.6914 N   0  0  0  0  0  0  0  0  0  0  0  0
   -6.8780    7.6095   18.9420 C   0  0  0  0  0  0  0  0  0  0  0  0
   -7.6711    8.5937   19.7309 C   0  0  0  0  0  0  0  0  0  0  0  0
   -8.6700    9.2466   18.9053 N   0  0  0  0  0  0  0  0  0  0  0  0
   -9.7811    9.5830   16.7776 N   0  0  0  0  0  0  0  0  0  0  0  0
   -9.9453    9.3113   15.4662 C   0  0  0  0  0  0  0  0  0  0  0  0
  -10.9547   10.0066   14.7419 N   0  0  0  0  0  0  0  0  0  0  0  0
   -9.1785    8.4026   14.8363 N   0  0  0  0  0  0  0  0  0  0  0  0
   -8.2386    7.7757   15.5742 C   0  0  0  0  0  0  0  0  0  0  0  0
   -7.5142    6.9246   15.0017 O   0  0  0  0  0  0  0  0  0  0  0  0
   -8.0569    8.0365   16.9018 C   0  0  0  0  0  0  0  0  0  0  0  0
   -8.8526    8.9708   17.5286 C   0  0  0  0  0  0  0  0  0  0  0  0
   -5.8149    6.8696   19.6811 C   0  0  0  0  0  0  0  0  0  0  0  0
   -5.3744    5.7659   18.9555 O   0  0  0  0  0  0  0  0  0  0  0  0
  1  2  2  0
  2  3  1  0
  3  4  1  0
  5  6  2  0
  6  7  1  0
  6  8  1  0
  8  9  1  0
  9 10  2  0
  1 11  1  0
  9 11  1  0
  4 12  1  0
  5 12  1  0
 11 12  2  0
  2 13  1  0
 13 14  1  0
M  END
$$$$
