1HQ2_PH2_A_181
     RDKit          3D

 14 15  0  0  0  0  0  0  0  0999 V2000
   -7.0586    7.4353   17.8020 N   0  0  0  0  0  0  0  0  0  0  0  0
   -6.8424    7.6972   19.0417 C   0  0  0  0  0  0  0  0  0  0  0  0
   -7.6260    8.7003   19.8161 C   0  0  0  0  0  0  0  0  0  0  0  0
   -8.6434    9.3239   18.9904 N   0  0  0  0  0  0  0  0  0  0  0  0
   -9.7953    9.5924   16.8748 N   0  0  0  0  0  0  0  0  0  0  0  0
   -9.9822    9.2814   15.5751 C   0  0  0  0  0  0  0  0  0  0  0  0
  -11.0085    9.9503   14.8497 N   0  0  0  0  0  0  0  0  0  0  0  0
   -9.2223    8.3583   14.9580 N   0  0  0  0  0  0  0  0  0  0  0  0
   -8.2657    7.7579   15.6963 C   0  0  0  0  0  0  0  0  0  0  0  0
   -7.5475    6.8938   15.1357 O   0  0  0  0  0  0  0  0  0  0  0  0
   -8.0609    8.0584   17.0122 C   0  0  0  0  0  0  0  0  0  0  0  0
   -8.8499    9.0069   17.6260 C   0  0  0  0  0  0  0  0  0  0  0  0
   -5.7620    6.9844   19.7823 C   0  0  0  0  0  0  0  0  0  0  0  0
   -5.1092    6.0695   18.9603 O   0  0  0  0  0  0  0  0  0  0  0  0
  1  2  2  0
  2  3  1  0
  3  4  1  0
  5  6  2  0
  6  7  1  0
  6  8  1  0
  8  9  1  0
  9 10  2  0
  1 11  1  0
  9 11  1  0
  4 12  1  0
  5 12  1  0
 11 12  2  0
  2 13  1  0
 13 14  1  0
M  END
$$$$
