1HQ2_PH2_A_181
     RDKit          3D

 14 15  0  0  0  0  0  0  0  0999 V2000
   -7.1471    7.3480   17.7319 N   0  0  0  0  0  0  0  0  0  0  0  0
   -6.9847    7.5794   18.9858 C   0  0  0  0  0  0  0  0  0  0  0  0
   -7.7892    8.5770   19.7458 C   0  0  0  0  0  0  0  0  0  0  0  0
   -8.7585    9.2338   18.8886 N   0  0  0  0  0  0  0  0  0  0  0  0
   -9.8075    9.5658   16.7289 N   0  0  0  0  0  0  0  0  0  0  0  0
   -9.9384    9.2862   15.4153 C   0  0  0  0  0  0  0  0  0  0  0  0
  -10.9206    9.9862   14.6589 N   0  0  0  0  0  0  0  0  0  0  0  0
   -9.1639    8.3655   14.8131 N   0  0  0  0  0  0  0  0  0  0  0  0
   -8.2509    7.7347   15.5808 C   0  0  0  0  0  0  0  0  0  0  0  0
   -7.5197    6.8724   15.0343 O   0  0  0  0  0  0  0  0  0  0  0  0
   -8.1030    8.0033   16.9111 C   0  0  0  0  0  0  0  0  0  0  0  0
   -8.9061    8.9498   17.5093 C   0  0  0  0  0  0  0  0  0  0  0  0
   -5.9498    6.8344   19.7589 C   0  0  0  0  0  0  0  0  0  0  0  0
   -5.3182    5.8817   18.9637 O   0  0  0  0  0  0  0  0  0  0  0  0
  1  2  2  0
  2  3  1  0
  3  4  1  0
  5  6  2  0
  6  7  1  0
  6  8  1  0
  8  9  1  0
  9 10  2  0
  1 11  1  0
  9 11  1  0
  4 12  1  0
  5 12  1  0
 11 12  2  0
  2 13  1  0
 13 14  1  0
M  END
$$$$
