1HQ2_PH2_A_181
     RDKit          3D

 14 15  0  0  0  0  0  0  0  0999 V2000
   -7.2443    7.1133   17.8548 N   0  0  0  0  0  0  0  0  0  0  0  0
   -7.1088    7.3014   19.1191 C   0  0  0  0  0  0  0  0  0  0  0  0
   -7.9049    8.2978   19.8893 C   0  0  0  0  0  0  0  0  0  0  0  0
   -8.8326    9.0081   19.0286 N   0  0  0  0  0  0  0  0  0  0  0  0
   -9.8145    9.4362   16.8543 N   0  0  0  0  0  0  0  0  0  0  0  0
   -9.9184    9.2009   15.5297 C   0  0  0  0  0  0  0  0  0  0  0  0
  -10.8603    9.9517   14.7708 N   0  0  0  0  0  0  0  0  0  0  0  0
   -9.1541    8.2773   14.9188 N   0  0  0  0  0  0  0  0  0  0  0  0
   -8.2797    7.5973   15.6895 C   0  0  0  0  0  0  0  0  0  0  0  0
   -7.5586    6.7315   15.1350 O   0  0  0  0  0  0  0  0  0  0  0  0
   -8.1595    7.8206   17.0309 C   0  0  0  0  0  0  0  0  0  0  0  0
   -8.9515    8.7710   17.6378 C   0  0  0  0  0  0  0  0  0  0  0  0
   -6.1158    6.5036   19.8946 C   0  0  0  0  0  0  0  0  0  0  0  0
   -5.6525    5.4204   19.1525 O   0  0  0  0  0  0  0  0  0  0  0  0
  1  2  2  0
  2  3  1  0
  3  4  1  0
  5  6  2  0
  6  7  1  0
  6  8  1  0
  8  9  1  0
  9 10  2  0
  1 11  1  0
  9 11  1  0
  4 12  1  0
  5 12  1  0
 11 12  2  0
  2 13  1  0
 13 14  1  0
M  END
$$$$
