7P2W_4QR_A_301
     RDKit          3D

 34 37  0  0  0  0  0  0  0  0999 V2000
  -28.3986    6.9991   -1.4457 N   0  0  0  0  0  0  0  0  0  0  0  0
  -23.4376    4.1130    0.7052 N   0  0  0  0  0  0  0  0  0  0  0  0
  -30.6787    7.8580   -1.8149 C   0  0  0  0  0  0  0  0  0  0  0  0
  -29.5864    7.3976   -1.0636 C   0  0  0  0  0  0  0  0  0  0  0  0
  -29.7505    7.3390    0.3247 C   0  0  0  0  0  0  0  0  0  0  0  0
  -27.4855    6.6180   -0.8623 C   0  0  0  0  0  0  0  0  0  0  0  0
  -33.2432    8.5602    0.8701 C   0  0  0  0  0  0  0  0  0  0  0  0
  -31.5959    7.8753   -5.3994 C   0  0  0  0  0  0  0  0  0  0  0  0
  -31.3103    7.8305   -8.1482 C   0  0  0  0  0  0  0  0  0  0  0  0
  -30.8203    8.8390   -6.0108 C   0  0  0  0  0  0  0  0  0  0  0  0
  -25.4521    5.5378    0.1200 C   0  0  0  0  0  0  0  0  0  0  0  0
  -22.5210    3.8164   -1.2792 C   0  0  0  0  0  0  0  0  0  0  0  0
  -22.4114    3.5340    0.0642 C   0  0  0  0  0  0  0  0  0  0  0  0
  -21.3633    2.7308    0.7651 C   0  0  0  0  0  0  0  0  0  0  0  0
  -30.9269    7.7128    0.9493 C   0  0  0  0  0  0  0  0  0  0  0  0
  -32.0083    8.1687    0.2042 C   0  0  0  0  0  0  0  0  0  0  0  0
  -31.8277    8.2190   -1.1563 C   0  0  0  0  0  0  0  0  0  0  0  0
  -28.1999    6.7253    0.9225 S   0  0  0  0  0  0  0  0  0  0  0  0
  -33.3165    8.5255    2.2466 O   0  0  0  0  0  0  0  0  0  0  0  0
  -34.2574    8.9337    0.2178 O   0  0  0  0  0  0  0  0  0  0  0  0
  -30.6234    7.9558   -3.1987 O   0  0  0  0  0  0  0  0  0  0  0  0
  -31.8170    7.8046   -3.9381 C   0  0  0  0  0  0  0  0  0  0  0  0
  -32.2287    6.8890   -6.1645 C   0  0  0  0  0  0  0  0  0  0  0  0
  -32.0802    6.8745   -7.5374 C   0  0  0  0  0  0  0  0  0  0  0  0
  -30.6778    8.8165   -7.3835 C   0  0  0  0  0  0  0  0  0  0  0  0
  -29.8471    9.8486   -8.0377 C   0  0  0  0  0  0  0  0  0  0  0  0
  -29.1658   10.6610   -7.3505 O   0  0  0  0  0  0  0  0  0  0  0  0
  -29.8362    9.9008   -9.4309 O   0  0  0  0  0  0  0  0  0  0  0  0
  -26.1322    6.1366   -0.9775 N   0  0  0  0  0  0  0  0  0  0  0  0
  -24.2254    4.7716   -0.1722 C   0  0  0  0  0  0  0  0  0  0  0  0
  -23.6469    4.5825   -1.4131 C   0  0  0  0  0  0  0  0  0  0  0  0
  -25.8815    5.6553    1.3123 O   0  0  0  0  0  0  0  0  0  0  0  0
  -24.2394    5.2127   -2.9365 Cl  0  0  0  0  0  0  0  0  0  0  0  0
  -21.3834    3.2508   -2.4775 Cl  0  0  0  0  0  0  0  0  0  0  0  0
  3  4  2  0
  1  4  1  0
  4  5  1  0
  1  6  2  0
  8 10  1  0
 12 13  2  0
  2 13  1  0
 13 14  1  0
  5 15  2  0
 15 16  1  0
  7 16  1  0
  3 17  1  0
 16 17  2  0
  6 18  1  0
  5 18  1  0
  7 19  1  0
  7 20  2  0
  3 21  1  0
  8 22  1  0
 21 22  1  0
  8 23  2  0
  9 24  2  0
 23 24  1  0
  9 25  1  0
 10 25  2  0
 25 26  1  0
 26 27  2  0
 26 28  1  0
  6 29  1  0
 11 29  1  0
 11 30  1  0
  2 30  1  0
 12 31  1  0
 30 31  2  0
 11 32  2  0
 31 33  1  0
 12 34  1  0
M  END
$$$$
