1P62_GEO_B_302
     RDKit          3D

 18 19  0  0  0  0  0  0  0  0999 V2000
   69.8931   38.1491   21.2682 O   0  0  0  0  0  0  0  0  0  0  0  0
   70.8359   37.1503   21.4875 C   0  0  0  0  0  0  0  0  0  0  0  0
   70.3134   35.7988   21.0743 C   0  0  1  0  0  0  0  0  0  0  0  0
   68.9814   35.8168   20.6721 O   0  0  0  0  0  0  0  0  0  0  0  0
   68.9063   34.6963   19.8651 C   0  0  1  0  0  0  0  0  0  0  0  0
   67.6629   34.4529   19.2330 N   0  0  0  0  0  0  0  0  0  0  0  0
   66.7873   35.4962   19.1263 C   0  0  0  0  0  0  0  0  0  0  0  0
   65.5489   35.3333   18.5188 C   0  0  0  0  0  0  0  0  0  0  0  0
   65.1980   34.0835   18.0113 C   0  0  0  0  0  0  0  0  0  0  0  0
   66.0929   33.0615   18.1327 N   0  0  0  0  0  0  0  0  0  0  0  0
   67.2988   33.2544   18.7337 C   0  0  0  0  0  0  0  0  0  0  0  0
   68.1024   32.2654   18.8229 O   0  0  0  0  0  0  0  0  0  0  0  0
   63.9356   33.8874   17.3837 N   0  0  0  0  0  0  0  0  0  0  0  0
   70.0360   35.0219   18.8846 C   0  0  2  0  0  0  0  0  0  0  0  0
   69.7739   36.2085   18.2171 F   0  0  0  0  0  0  0  0  0  0  0  0
   70.3208   33.9742   18.0683 F   0  0  0  0  0  0  0  0  0  0  0  0
   71.1328   35.3456   19.8859 C   0  0  2  0  0  0  0  0  0  0  0  0
   71.8128   34.1485   20.1835 O   0  0  0  0  0  0  0  0  0  0  0  0
  1  2  1  0
  3  2  1  6
  3  4  1  0
  4  5  1  0
  5  6  1  6
  6  7  1  0
  7  8  2  0
  8  9  1  0
  9 10  2  0
  6 11  1  0
 10 11  1  0
 11 12  2  0
  9 13  1  0
  5 14  1  0
 14 15  1  6
 14 16  1  0
  3 17  1  0
 14 17  1  0
 17 18  1  1
M  END
$$$$
