1P62_GEO_B_302
     RDKit          3D

 18 19  0  0  0  0  0  0  0  0999 V2000
   69.8818   38.1181   21.2725 O   0  0  0  0  0  0  0  0  0  0  0  0
   70.7677   37.0994   21.6065 C   0  0  0  0  0  0  0  0  0  0  0  0
   70.2805   35.7615   21.1136 C   0  0  1  0  0  0  0  0  0  0  0  0
   68.9329   35.7539   20.7667 O   0  0  0  0  0  0  0  0  0  0  0  0
   68.8667   34.6937   19.8812 C   0  0  1  0  0  0  0  0  0  0  0  0
   67.6079   34.4462   19.2820 N   0  0  0  0  0  0  0  0  0  0  0  0
   66.7681   35.5087   19.1018 C   0  0  0  0  0  0  0  0  0  0  0  0
   65.5174   35.3431   18.5209 C   0  0  0  0  0  0  0  0  0  0  0  0
   65.1167   34.0707   18.1167 C   0  0  0  0  0  0  0  0  0  0  0  0
   65.9768   33.0300   18.3098 N   0  0  0  0  0  0  0  0  0  0  0  0
   67.1960   33.2260   18.8823 C   0  0  0  0  0  0  0  0  0  0  0  0
   67.9655   32.2190   19.0414 O   0  0  0  0  0  0  0  0  0  0  0  0
   63.8406   33.8714   17.5186 N   0  0  0  0  0  0  0  0  0  0  0  0
   69.9405   35.1373   18.8842 C   0  0  2  0  0  0  0  0  0  0  0  0
   69.6049   36.3580   18.3189 F   0  0  0  0  0  0  0  0  0  0  0  0
   70.2305   34.1653   17.9807 F   0  0  0  0  0  0  0  0  0  0  0  0
   71.0655   35.4314   19.8630 C   0  0  2  0  0  0  0  0  0  0  0  0
   71.8030   34.2449   20.0425 O   0  0  0  0  0  0  0  0  0  0  0  0
  1  2  1  0
  3  2  1  6
  3  4  1  0
  4  5  1  0
  5  6  1  6
  6  7  1  0
  7  8  2  0
  8  9  1  0
  9 10  2  0
  6 11  1  0
 10 11  1  0
 11 12  2  0
  9 13  1  0
  5 14  1  0
 14 15  1  6
 14 16  1  0
  3 17  1  0
 14 17  1  0
 17 18  1  1
M  END
$$$$
