1P62_GEO_B_302
     RDKit          3D

 18 19  0  0  0  0  0  0  0  0999 V2000
   70.0234   38.0851   21.1491 O   0  0  0  0  0  0  0  0  0  0  0  0
   70.7669   37.0321   21.6714 C   0  0  0  0  0  0  0  0  0  0  0  0
   70.3030   35.7062   21.1264 C   0  0  1  0  0  0  0  0  0  0  0  0
   68.9510   35.6824   20.7979 O   0  0  0  0  0  0  0  0  0  0  0  0
   68.8960   34.6608   19.8673 C   0  0  1  0  0  0  0  0  0  0  0  0
   67.6346   34.4106   19.2749 N   0  0  0  0  0  0  0  0  0  0  0  0
   66.7811   35.4666   19.1232 C   0  0  0  0  0  0  0  0  0  0  0  0
   65.5270   35.2980   18.5506 C   0  0  0  0  0  0  0  0  0  0  0  0
   65.1370   34.0292   18.1253 C   0  0  0  0  0  0  0  0  0  0  0  0
   66.0106   32.9949   18.2901 N   0  0  0  0  0  0  0  0  0  0  0  0
   67.2328   33.1938   18.8551 C   0  0  0  0  0  0  0  0  0  0  0  0
   68.0151   32.1927   18.9875 O   0  0  0  0  0  0  0  0  0  0  0  0
   63.8577   33.8269   17.5350 N   0  0  0  0  0  0  0  0  0  0  0  0
   69.9448   35.1727   18.8764 C   0  0  2  0  0  0  0  0  0  0  0  0
   69.5734   36.4089   18.3703 F   0  0  0  0  0  0  0  0  0  0  0  0
   70.2435   34.2483   17.9270 F   0  0  0  0  0  0  0  0  0  0  0  0
   71.0770   35.4497   19.8519 C   0  0  2  0  0  0  0  0  0  0  0  0
   71.8438   34.2739   19.9688 O   0  0  0  0  0  0  0  0  0  0  0  0
  1  2  1  0
  3  2  1  6
  3  4  1  0
  4  5  1  0
  5  6  1  6
  6  7  1  0
  7  8  2  0
  8  9  1  0
  9 10  2  0
  6 11  1  0
 10 11  1  0
 11 12  2  0
  9 13  1  0
  5 14  1  0
 14 15  1  6
 14 16  1  0
  3 17  1  0
 14 17  1  0
 17 18  1  1
M  END
$$$$
