1P62_GEO_B_302
     RDKit          3D

 18 19  0  0  0  0  0  0  0  0999 V2000
   69.8863   38.1203   21.2509 O   0  0  0  0  0  0  0  0  0  0  0  0
   70.6295   37.0727   21.7841 C   0  0  0  0  0  0  0  0  0  0  0  0
   70.1677   35.7415   21.2501 C   0  0  1  0  0  0  0  0  0  0  0  0
   68.8293   35.7292   20.8693 O   0  0  0  0  0  0  0  0  0  0  0  0
   68.7955   34.6882   19.9595 C   0  0  1  0  0  0  0  0  0  0  0  0
   67.5546   34.4425   19.3236 N   0  0  0  0  0  0  0  0  0  0  0  0
   66.7022   35.4977   19.1605 C   0  0  0  0  0  0  0  0  0  0  0  0
   65.4676   35.3333   18.5458 C   0  0  0  0  0  0  0  0  0  0  0  0
   65.0964   34.0697   18.0894 C   0  0  0  0  0  0  0  0  0  0  0  0
   65.9684   33.0361   18.2665 N   0  0  0  0  0  0  0  0  0  0  0  0
   67.1712   33.2307   18.8731 C   0  0  0  0  0  0  0  0  0  0  0  0
   67.9529   32.2305   19.0154 O   0  0  0  0  0  0  0  0  0  0  0  0
   63.8373   33.8718   17.4557 N   0  0  0  0  0  0  0  0  0  0  0  0
   69.8896   35.1634   18.9998 C   0  0  2  0  0  0  0  0  0  0  0  0
   69.5565   36.3931   18.4529 F   0  0  0  0  0  0  0  0  0  0  0  0
   70.2115   34.2141   18.0830 F   0  0  0  0  0  0  0  0  0  0  0  0
   70.9869   35.4462   20.0128 C   0  0  2  0  0  0  0  0  0  0  0  0
   71.7311   34.2627   20.1851 O   0  0  0  0  0  0  0  0  0  0  0  0
  1  2  1  0
  3  2  1  6
  3  4  1  0
  4  5  1  0
  5  6  1  6
  6  7  1  0
  7  8  2  0
  8  9  1  0
  9 10  2  0
  6 11  1  0
 10 11  1  0
 11 12  2  0
  9 13  1  0
  5 14  1  0
 14 15  1  6
 14 16  1  0
  3 17  1  0
 14 17  1  0
 17 18  1  1
M  END
$$$$
