1P62_GEO_B_302
     RDKit          3D

 18 19  0  0  0  0  0  0  0  0999 V2000
   69.8789   38.1030   21.1729 O   0  0  0  0  0  0  0  0  0  0  0  0
   70.6977   37.0671   21.6097 C   0  0  0  0  0  0  0  0  0  0  0  0
   70.2110   35.7315   21.1100 C   0  0  1  0  0  0  0  0  0  0  0  0
   68.8671   35.7291   20.7490 O   0  0  0  0  0  0  0  0  0  0  0  0
   68.8064   34.6702   19.8615 C   0  0  1  0  0  0  0  0  0  0  0  0
   67.5532   34.4279   19.2489 N   0  0  0  0  0  0  0  0  0  0  0  0
   66.7152   35.4919   19.0696 C   0  0  0  0  0  0  0  0  0  0  0  0
   65.4699   35.3314   18.4759 C   0  0  0  0  0  0  0  0  0  0  0  0
   65.0726   34.0624   18.0579 C   0  0  0  0  0  0  0  0  0  0  0  0
   65.9307   33.0199   18.2504 N   0  0  0  0  0  0  0  0  0  0  0  0
   67.1447   33.2111   18.8356 C   0  0  0  0  0  0  0  0  0  0  0  0
   67.9125   32.2025   18.9937 O   0  0  0  0  0  0  0  0  0  0  0  0
   63.8020   33.8682   17.4465 N   0  0  0  0  0  0  0  0  0  0  0  0
   69.8922   35.1112   18.8764 C   0  0  2  0  0  0  0  0  0  0  0  0
   69.5669   36.3337   18.3091 F   0  0  0  0  0  0  0  0  0  0  0  0
   70.1882   34.1392   17.9749 F   0  0  0  0  0  0  0  0  0  0  0  0
   71.0079   35.4002   19.8673 C   0  0  2  0  0  0  0  0  0  0  0  0
   71.7393   34.2108   20.0531 O   0  0  0  0  0  0  0  0  0  0  0  0
  1  2  1  0
  3  2  1  6
  3  4  1  0
  4  5  1  0
  5  6  1  6
  6  7  1  0
  7  8  2  0
  8  9  1  0
  9 10  2  0
  6 11  1  0
 10 11  1  0
 11 12  2  0
  9 13  1  0
  5 14  1  0
 14 15  1  6
 14 16  1  0
  3 17  1  0
 14 17  1  0
 17 18  1  1
M  END
$$$$
