7BKA_4JC_D_201
     RDKit          3D

 23 23  0  0  0  0  0  0  0  0999 V2000
   23.1953   50.0276    8.5119 O   0  0  0  0  0  0  0  0  0  0  0  0
   23.4084   51.4471    9.3364 S   0  0  1  0  0  6  0  0  0  0  0  0
   24.5296   51.1664   10.2511 O   0  0  0  0  0  0  0  0  0  0  0  0
   23.7456   52.5444    8.5871 N   0  0  0  0  0  0  0  0  0  0  0  0
   21.9480   51.8002   10.1674 C   0  0  0  0  0  0  0  0  0  0  0  0
   21.6156   53.1195   10.4408 C   0  0  0  0  0  0  0  0  0  0  0  0
   20.4157   53.4225   11.0959 C   0  0  0  0  0  0  0  0  0  0  0  0
   21.0881   50.7789   10.5836 C   0  0  0  0  0  0  0  0  0  0  0  0
   19.9059   51.0820   11.2251 C   0  0  0  0  0  0  0  0  0  0  0  0
   19.5590   52.3857   11.4891 C   0  0  0  0  0  0  0  0  0  0  0  0
   18.2526   52.6458   12.2276 C   0  0  0  0  0  0  0  0  0  0  0  0
   17.1759   53.1492   11.2364 C   0  0  0  0  0  0  0  0  0  0  0  0
   24.6124   52.3584    8.0826 H   0  0  0  0  0  0  0  0  0  0  0  0
   23.8753   53.3485    9.2010 H   0  0  0  0  0  0  0  0  0  0  0  0
   22.2547   53.8797   10.1603 H   0  0  0  0  0  0  0  0  0  0  0  0
   20.1636   54.4045   11.2883 H   0  0  0  0  0  0  0  0  0  0  0  0
   21.3396   49.7933   10.4096 H   0  0  0  0  0  0  0  0  0  0  0  0
   19.2724   50.3192   11.5112 H   0  0  0  0  0  0  0  0  0  0  0  0
   18.4137   53.3869   12.9825 H   0  0  0  0  0  0  0  0  0  0  0  0
   17.9168   51.7356   12.6789 H   0  0  0  0  0  0  0  0  0  0  0  0
   17.5070   54.0596   10.7822 H   0  0  0  0  0  0  0  0  0  0  0  0
   16.2611   53.3252   11.7628 H   0  0  0  0  0  0  0  0  0  0  0  0
   17.0151   52.4106   10.4791 H   0  0  0  0  0  0  0  0  0  0  0  0
  1  2  2  0
  2  3  2  0
  2  4  1  6
  2  5  1  0
  5  6  4  0
  6  7  4  0
  5  8  4  0
  8  9  4  0
  7 10  4  0
  9 10  4  0
 10 11  1  0
 11 12  1  0
  4 13  1  0
  4 14  1  0
  6 15  1  0
  7 16  1  0
  8 17  1  0
  9 18  1  0
 11 19  1  0
 11 20  1  0
 12 21  1  0
 12 22  1  0
 12 23  1  0
M  END
