7TOM_5AD_A_605
     RDKit          3D

 31 33  0  0  0  0  0  0  0  0999 V2000
   14.2699   58.6529   29.7899 N   0  0  0  0  0  0  0  0  0  0  0  0
   13.9122   57.7775   30.7842 C   0  0  0  0  0  0  0  0  0  0  0  0
   13.7797   58.2098   32.0742 N   0  0  0  0  0  0  0  0  0  0  0  0
   14.0177   59.5184   32.3333 C   0  0  0  0  0  0  0  0  0  0  0  0
   13.9334   60.1508   33.5115 N   0  0  0  0  0  0  0  0  0  0  0  0
   14.2273   61.4412   33.2071 C   0  0  0  0  0  0  0  0  0  0  0  0
   14.5082   61.6355   31.8886 N   0  0  0  0  0  0  0  0  0  0  0  0
   14.3670   60.4009   31.3700 C   0  0  0  0  0  0  0  0  0  0  0  0
   14.5026   59.9736   30.0538 C   0  0  0  0  0  0  0  0  0  0  0  0
   14.8651   60.8715   29.0048 N   0  0  0  0  0  0  0  0  0  0  0  0
   13.5037   59.6250   34.8084 C   0  0  1  0  0  0  0  0  0  0  0  0
   11.9837   59.6050   34.9082 C   0  0  1  0  0  0  0  0  0  0  0  0
   11.7308   58.4716   35.8718 C   0  0  1  0  0  0  0  0  0  0  0  0
   12.9649   57.5790   35.6620 C   0  0  1  0  0  0  0  0  0  0  0  0
   12.6193   56.3276   34.8530 C   0  0  2  0  0  0  0  0  0  0  0  0
   13.9700   58.3064   34.9814 O   0  0  0  0  0  0  0  0  0  0  0  0
   11.4307   60.8325   35.3236 O   0  0  0  0  0  0  0  0  0  0  0  0
   11.6915   58.9387   37.1969 O   0  0  0  0  0  0  0  0  0  0  0  0
   13.7318   56.7385   30.5455 H   0  0  0  0  0  0  0  0  0  0  0  0
   14.2262   62.2423   33.9349 H   0  0  0  0  0  0  0  0  0  0  0  0
   14.9307   60.5289   28.0207 H   0  0  0  0  0  0  0  0  0  0  0  0
   15.0693   61.8762   29.2032 H   0  0  0  0  0  0  0  0  0  0  0  0
   13.9431   60.2482   35.6201 H   0  0  0  0  0  0  0  0  0  0  0  0
   11.5462   59.3345   33.9209 H   0  0  0  0  0  0  0  0  0  0  0  0
   10.7708   57.9613   35.6193 H   0  0  0  0  0  0  0  0  0  0  0  0
   13.3722   57.2474   36.6429 H   0  0  0  0  0  0  0  0  0  0  0  0
   12.2774   55.5208   35.5352 H   0  0  0  0  0  0  0  0  0  0  0  0
   13.5089   55.9687   34.2926 H   0  0  0  0  0  0  0  0  0  0  0  0
   11.8029   56.5508   34.1336 H   0  0  0  0  0  0  0  0  0  0  0  0
   12.0221   61.2313   36.0137 H   0  0  0  0  0  0  0  0  0  0  0  0
   11.5449   58.1427   37.7717 H   0  0  0  0  0  0  0  0  0  0  0  0
  1  2  2  0
  2  3  1  0
  3  4  2  0
  4  5  1  0
  5  6  1  0
  6  7  2  0
  4  8  1  0
  7  8  1  0
  1  9  1  0
  8  9  2  0
  9 10  1  0
 11  5  1  0
 11 12  1  0
 12 13  1  0
 13 14  1  0
 14 15  1  0
 11 16  1  0
 14 16  1  0
 12 17  1  0
 13 18  1  0
  2 19  1  0
  6 20  1  0
 10 21  1  0
 10 22  1  0
 11 23  1  1
 12 24  1  6
 13 25  1  6
 14 26  1  1
 15 27  1  1
 15 28  1  0
 15 29  1  0
 17 30  1  0
 18 31  1  0
M  END
