
     RDKit          3D

  6  5  0  0  0  0  0  0  0  0999 V2000
   20.4117   30.8273   -7.3306 C   0  0  0  0  0  0  0  0  0  0  0  0
   21.1897   33.7424   -9.5811 C   0  0  0  0  0  0  0  0  0  0  0  0
   18.9954   33.1084   -8.3033 O   0  0  0  0  0  0  0  0  0  0  0  0
   20.6183   31.0978   -8.8060 C   0  0  0  0  0  0  0  0  0  0  0  0
   19.2917   32.3389  -10.6836 O   0  0  0  0  0  0  0  0  0  0  0  0
   19.8416   32.6038   -9.3672 S   0  0  2  0  0  6  0  0  0  0  0  0
  1  4  1  0
  3  6  2  0
  4  6  1  0
  6  2  1  6
  5  6  2  0
M  END
