7UMV_NUU_A_501
     RDKit          3D

 41 43  0  0  0  0  0  0  0  0999 V2000
  -33.4319    7.7864  -10.0340 C   0  0  0  0  0  0  0  0  0  0  0  0
  -34.1371    5.3939  -10.8668 C   0  0  0  0  0  0  0  0  0  0  0  0
  -34.6131    3.5164  -12.2076 C   0  0  0  0  0  0  0  0  0  0  0  0
  -32.7779    4.9920  -10.7651 C   0  0  0  0  0  0  0  0  0  0  0  0
  -31.8960    5.7666   -9.8946 C   0  0  0  0  0  0  0  0  0  0  0  0
  -31.6631    1.7322   -7.7285 C   0  0  0  0  0  0  0  0  0  0  0  0
  -30.9657    1.9782   -6.3673 C   0  0  1  0  0  0  0  0  0  0  0  0
  -32.0456    2.4879   -5.3213 C   0  0  0  0  0  0  0  0  0  0  0  0
  -30.2741    0.6647   -5.8228 C   0  0  0  0  0  0  0  0  0  0  0  0
  -29.8483    2.9622   -6.4350 C   0  0  0  0  0  0  0  0  0  0  0  0
  -29.0001    3.2564   -7.6248 C   0  0  0  0  0  0  0  0  0  0  0  0
  -29.9728    5.8127   -8.5264 C   0  0  0  0  0  0  0  0  0  0  0  0
  -31.2998    7.7614   -8.5931 C   0  0  0  0  0  0  0  0  0  0  0  0
  -32.2044    7.0948   -9.5083 C   0  0  0  0  0  0  0  0  0  0  0  0
  -34.6025    6.7218  -10.1710 C   0  0  0  0  0  0  0  0  0  0  0  0
  -33.2974    3.0211  -12.1117 C   0  0  0  0  0  0  0  0  0  0  0  0
  -32.3237    3.7460  -11.3569 C   0  0  0  0  0  0  0  0  0  0  0  0
  -30.2162    7.0673   -8.1283 N   0  0  0  0  0  0  0  0  0  0  0  0
  -35.0522    4.6698  -11.5850 N   0  0  0  0  0  0  0  0  0  0  0  0
  -30.7341    5.1119   -9.4095 N   0  0  0  0  0  0  0  0  0  0  0  0
  -29.7075    3.7030   -5.4117 O   0  0  0  0  0  0  0  0  0  0  0  0
  -28.5495    4.9478   -7.9609 S   0  0  0  0  0  0  0  0  0  0  0  0
  -33.2210    8.2138  -10.9919 H   0  0  0  0  0  0  0  0  0  0  0  0
  -33.7263    8.5645   -9.3609 H   0  0  0  0  0  0  0  0  0  0  0  0
  -35.2901    2.9855  -12.7774 H   0  0  0  0  0  0  0  0  0  0  0  0
  -32.4501    1.0185   -7.6021 H   0  0  0  0  0  0  0  0  0  0  0  0
  -30.9500    1.3558   -8.4319 H   0  0  0  0  0  0  0  0  0  0  0  0
  -32.0709    2.6523   -8.0919 H   0  0  0  0  0  0  0  0  0  0  0  0
  -32.8505    1.7849   -5.2687 H   0  0  0  0  0  0  0  0  0  0  0  0
  -32.4228    3.4394   -5.6332 H   0  0  0  0  0  0  0  0  0  0  0  0
  -31.5914    2.5828   -4.3570 H   0  0  0  0  0  0  0  0  0  0  0  0
  -31.0035   -0.1133   -5.7372 H   0  0  0  0  0  0  0  0  0  0  0  0
  -29.8458    0.8593   -4.8616 H   0  0  0  0  0  0  0  0  0  0  0  0
  -29.5050    0.3594   -6.5010 H   0  0  0  0  0  0  0  0  0  0  0  0
  -29.5261    2.8947   -8.4836 H   0  0  0  0  0  0  0  0  0  0  0  0
  -28.0685    2.7795   -7.4025 H   0  0  0  0  0  0  0  0  0  0  0  0
  -31.4691    8.7362   -8.2990 H   0  0  0  0  0  0  0  0  0  0  0  0
  -34.9668    6.4860   -9.1930 H   0  0  0  0  0  0  0  0  0  0  0  0
  -35.3643    7.1572  -10.7833 H   0  0  0  0  0  0  0  0  0  0  0  0
  -33.0384    2.1404  -12.5834 H   0  0  0  0  0  0  0  0  0  0  0  0
  -31.3570    3.4045  -11.2398 H   0  0  0  0  0  0  0  0  0  0  0  0
  2  4  4  0
  4  5  1  0
  6  7  1  0
  7  8  1  0
  7  9  1  0
  7 10  1  6
 10 11  1  0
  1 14  1  0
  5 14  4  0
 13 14  4  0
  2 15  1  0
  1 15  1  0
  3 16  4  0
 16 17  4  0
  4 17  4  0
 13 18  4  0
 12 18  4  0
  3 19  4  0
  2 19  4  0
  5 20  4  0
 12 20  4  0
 10 21  2  0
 12 22  1  0
 11 22  1  0
  1 23  1  0
  1 24  1  0
  3 25  1  0
  6 26  1  0
  6 27  1  0
  6 28  1  0
  8 29  1  0
  8 30  1  0
  8 31  1  0
  9 32  1  0
  9 33  1  0
  9 34  1  0
 11 35  1  0
 11 36  1  0
 13 37  1  0
 15 38  1  0
 15 39  1  0
 16 40  1  0
 17 41  1  0
M  END
