7T3F_EM0_A_201
     RDKit          3D

 24 26  0  0  0  0  0  0  0  0999 V2000
   44.8670   39.7350   70.1140 F   0  0  0  0  0  0  0  0  0  0  0  0
   44.5610   39.2030   71.3180 C   0  0  0  0  0  0  0  0  0  0  0  0
   43.8740   39.9700   72.2190 C   0  0  0  0  0  0  0  0  0  0  0  0
   43.4800   41.3890   71.8840 C   0  0  0  0  0  0  0  0  0  0  0  0
   43.5220   39.3930   73.4520 C   0  0  0  0  0  0  0  0  0  0  0  0
   43.7760   38.0560   73.8290 C   0  0  0  0  0  0  0  0  0  0  0  0
   44.5450   37.3650   72.8500 C   0  0  0  0  0  0  0  0  0  0  0  0
   44.9010   37.8980   71.6010 C   0  0  0  0  0  0  0  0  0  0  0  0
   43.4220   37.4230   75.2890 S   0  0  0  0  0  0  0  0  0  0  0  0
   42.7760   38.4420   76.0480 O   0  0  0  0  0  0  0  0  0  0  0  0
   42.6760   36.2070   75.0300 O   0  0  0  0  0  0  0  0  0  0  0  0
   44.8000   36.9930   75.9210 N   0  0  0  0  0  0  0  0  0  0  0  0
   45.8100   37.9220   76.2690 C   0  0  0  0  0  0  0  0  0  0  0  0
   45.6440   38.8990   77.2510 C   0  0  0  0  0  0  0  0  0  0  0  0
   46.6380   39.8300   77.5250 C   0  0  0  0  0  0  0  0  0  0  0  0
   46.4420   40.8400   78.5730 C   0  0  0  0  0  0  0  0  0  0  0  0
   47.5330   41.8060   78.6790 N   0  0  0  0  0  0  0  0  0  0  0  0
   47.3750   42.8900   79.6420 C   0  0  0  0  0  0  0  0  0  0  0  0
   48.7150   41.7080   77.9420 C   0  0  0  0  0  0  0  0  0  0  0  0
   49.6190   42.5340   78.1000 O   0  0  0  0  0  0  0  0  0  0  0  0
   48.8550   40.7000   77.0780 N   0  0  0  0  0  0  0  0  0  0  0  0
   47.8490   39.8090   76.7970 C   0  0  0  0  0  0  0  0  0  0  0  0
   48.0240   38.8610   75.7870 C   0  0  0  0  0  0  0  0  0  0  0  0
   47.0000   37.9430   75.5230 C   0  0  0  0  0  0  0  0  0  0  0  0
  1  2  1  0
  2  3  2  0
  3  4  1  0
  3  5  1  0
  5  6  2  0
  6  7  1  0
  2  8  1  0
  7  8  2  0
  6  9  1  0
  9 10  2  0
  9 11  2  0
  9 12  1  0
 12 13  1  0
 13 14  2  0
 14 15  1  0
 15 16  1  0
 16 17  1  0
 17 18  1  0
 17 19  1  0
 19 20  2  0
 19 21  1  0
 21 22  1  0
 15 22  2  0
 22 23  1  0
 23 24  2  0
 13 24  1  0
M  END
$$$$
