
     RDKit          3D

 46 52  0  0  0  0  0  0  0  0999 V2000
  -27.1133  -26.9835    1.4804 P   0  0  1  0  0  5  0  0  0  0  0  0
  -26.8745  -25.4412    1.8421 O   0  0  0  0  0  0  0  0  0  0  0  0
  -28.5169  -27.4015    1.7476 O   0  0  0  0  0  0  0  0  0  0  0  0
  -26.6346  -27.0954   -0.0411 O   0  0  0  0  0  0  0  0  0  0  0  0
  -27.1887  -26.1956   -0.9871 C   0  0  0  0  0  0  0  0  0  0  0  0
  -27.0010  -26.7579   -2.3958 C   0  0  1  0  0  0  0  0  0  0  0  0
  -27.3756  -25.7791   -3.3792 O   0  0  0  0  0  0  0  0  0  0  0  0
  -25.5567  -27.1695   -2.6780 C   0  0  1  0  0  0  0  0  0  0  0  0
  -25.3629  -28.5423   -2.3812 O   0  0  0  0  0  0  0  0  0  0  0  0
  -25.4181  -26.8786   -4.1646 C   0  0  1  0  0  0  0  0  0  0  0  0
  -25.9535  -27.9581   -4.9580 O   0  0  0  0  0  0  0  0  0  0  0  0
  -26.2695  -25.6125   -4.3133 C   0  0  2  0  0  0  0  0  0  0  0  0
  -25.5747  -24.3730   -3.9937 N   0  0  0  0  0  0  0  0  0  0  0  0
  -25.6243  -23.6769   -2.8141 C   0  0  0  0  0  0  0  0  0  0  0  0
  -24.8016  -22.6444   -2.8079 N   0  0  0  0  0  0  0  0  0  0  0  0
  -24.3175  -22.5977   -4.0910 C   0  0  0  0  0  0  0  0  0  0  0  0
  -23.4612  -21.6292   -4.7477 C   0  0  0  0  0  0  0  0  0  0  0  0
  -22.9378  -20.6674   -4.1973 O   0  0  0  0  0  0  0  0  0  0  0  0
  -23.2908  -21.9100   -6.0996 N   0  0  0  0  0  0  0  0  0  0  0  0
  -23.8275  -23.0092   -6.7462 C   0  0  0  0  0  0  0  0  0  0  0  0
  -23.5548  -23.1294   -8.0705 N   0  0  0  0  0  0  0  0  0  0  0  0
  -24.5751  -23.9046   -6.1547 N   0  0  0  0  0  0  0  0  0  0  0  0
  -24.7926  -23.6450   -4.8438 C   0  0  0  0  0  0  0  0  0  0  0  0
  -23.9455  -28.9584   -1.7465 P   0  0  1  0  0  5  0  0  0  0  0  0
  -23.9085  -30.5262   -2.0656 O   0  0  0  0  0  0  0  0  0  0  0  0
  -22.7744  -28.1947   -2.2699 O   0  0  0  0  0  0  0  0  0  0  0  0
  -24.2138  -28.8991   -0.1654 O   0  0  0  0  0  0  0  0  0  0  0  0
  -23.1413  -28.4605    0.6464 C   0  0  0  0  0  0  0  0  0  0  0  0
  -23.5757  -28.2894    2.1043 C   0  0  1  0  0  0  0  0  0  0  0  0
  -22.4211  -27.8666    2.8564 O   0  0  0  0  0  0  0  0  0  0  0  0
  -24.6528  -27.2207    2.2875 C   0  0  1  0  0  0  0  0  0  0  0  0
  -25.9788  -27.7421    2.3259 O   0  0  0  0  0  0  0  0  0  0  0  0
  -24.3131  -26.6293    3.6507 C   0  0  1  0  0  0  0  0  0  0  0  0
  -24.9295  -27.4224    4.6942 O   0  0  0  0  0  0  0  0  0  0  0  0
  -22.7953  -26.7826    3.7338 C   0  0  2  0  0  0  0  0  0  0  0  0
  -21.9821  -25.6311    3.3983 N   0  0  0  0  0  0  0  0  0  0  0  0
  -21.3456  -25.4793    2.1828 C   0  0  0  0  0  0  0  0  0  0  0  0
  -20.5894  -24.3991    2.1421 N   0  0  0  0  0  0  0  0  0  0  0  0
  -20.7797  -23.8115    3.3677 C   0  0  0  0  0  0  0  0  0  0  0  0
  -20.2126  -22.5966    3.9189 C   0  0  0  0  0  0  0  0  0  0  0  0
  -19.4125  -21.8592    3.3489 O   0  0  0  0  0  0  0  0  0  0  0  0
  -20.6631  -22.3417    5.2088 N   0  0  0  0  0  0  0  0  0  0  0  0
  -21.5280  -23.1576    5.9091 C   0  0  0  0  0  0  0  0  0  0  0  0
  -21.8302  -22.7646    7.1727 N   0  0  0  0  0  0  0  0  0  0  0  0
  -22.0478  -24.2586    5.4212 N   0  0  0  0  0  0  0  0  0  0  0  0
  -21.6453  -24.5414    4.1569 C   0  0  0  0  0  0  0  0  0  0  0  0
  1  2  1  1
  1  3  2  0
  1  4  1  0
  4  5  1  0
  6  5  1  1
  6  7  1  0
  6  8  1  0
  8  9  1  6
  8 10  1  0
 10 11  1  6
 10 12  1  0
  7 12  1  0
 12 13  1  1
 13 14  4  0
 14 15  4  0
 15 16  4  0
 16 17  4  0
 17 18  2  0
 17 19  4  0
 19 20  4  0
 20 21  1  0
 20 22  4  0
 13 23  4  0
 22 23  4  0
 16 23  4  0
  9 24  1  0
 24 25  1  0
 24 26  2  0
 24 27  1  0
 27 28  1  0
 29 28  1  6
 29 30  1  0
 29 31  1  0
 31 32  1  1
  1 32  1  0
 31 33  1  0
 33 34  1  1
 30 35  1  0
 33 35  1  0
 35 36  1  6
 36 37  4  0
 37 38  4  0
 38 39  4  0
 39 40  4  0
 40 41  2  0
 40 42  4  0
 42 43  4  0
 43 44  1  0
 43 45  4  0
 36 46  4  0
 39 46  4  0
 45 46  4  0
M  END
