7BCP_GCO_A_401
     RDKit          3D

 13 12  0  0  0  0  0  0  0  0999 V2000
  -19.2692    0.5071   -3.6996 C   0  0  0  0  0  0  0  0  0  0  0  0
  -18.3242    0.5535   -4.8913 C   0  0  1  0  0  0  0  0  0  0  0  0
  -18.3380    1.8353   -5.7272 C   0  0  2  0  0  0  0  0  0  0  0  0
  -19.7632    1.9417   -6.2857 C   0  0  1  0  0  0  0  0  0  0  0  0
  -19.8830    3.2077   -7.1276 C   0  0  1  0  0  0  0  0  0  0  0  0
  -19.4259    2.8891   -8.5426 C   0  0  0  0  0  0  0  0  0  0  0  0
  -19.1679    1.3896   -2.7888 O   0  0  0  0  0  0  0  0  0  0  0  0
  -20.1315   -0.3964   -3.6266 O   0  0  0  0  0  0  0  0  0  0  0  0
  -17.0534    0.3498   -4.2878 O   0  0  0  0  0  0  0  0  0  0  0  0
  -17.3880    1.6330   -6.7365 O   0  0  0  0  0  0  0  0  0  0  0  0
  -20.1294    0.7676   -7.0002 O   0  0  0  0  0  0  0  0  0  0  0  0
  -21.2436    3.6303   -7.2461 O   0  0  0  0  0  0  0  0  0  0  0  0
  -19.8004    4.0075   -9.3237 O   0  0  0  0  0  0  0  0  0  0  0  0
  1  2  1  0
  2  3  1  0
  3  4  1  0
  4  5  1  0
  5  6  1  0
  1  7  2  0
  1  8  1  0
  2  9  1  1
  3 10  1  6
  4 11  1  6
  5 12  1  6
  6 13  1  0
M  END
