7L6D_BMF_A_501
     RDKit          3D

 48 50  0  0  0  0  0  0  0  0999 V2000
    0.4605   -0.0642   -1.3660 C   0  0  0  0  0  0  0  0  0  0  0  0
    0.5366   -0.8518    0.9645 N   0  0  0  0  0  0  0  0  0  0  0  0
   -2.2441   -0.8642    1.2190 C   0  0  0  0  0  0  0  0  0  0  0  0
   -4.4406   -1.8417    2.0092 C   0  0  0  0  0  0  0  0  0  0  0  0
   -7.0182   -3.6856    1.7983 C   0  0  0  0  0  0  0  0  0  0  0  0
   -1.6327   -0.4585    0.0170 C   0  0  0  0  0  0  0  0  0  0  0  0
    1.8916   -1.7128    3.5771 C   0  0  0  0  0  0  0  0  0  0  0  0
    0.5088    0.1401   -3.7867 C   0  0  0  0  0  0  0  0  0  0  0  0
    2.4829    1.0771   -5.0201 C   0  0  0  0  0  0  0  0  0  0  0  0
    1.7986    0.6911   -3.7361 C   0  0  0  0  0  0  0  0  0  0  0  0
    2.4326    0.8667   -2.4836 C   0  0  0  0  0  0  0  0  0  0  0  0
    3.7482    1.4487   -2.4031 N   0  0  0  0  0  0  0  0  0  0  0  0
    4.8926    1.0480   -1.1608 S   0  0  0  0  0  6  0  0  0  0  0  0
    4.9733   -0.7172   -0.9397 C   0  0  0  0  0  0  0  0  0  0  0  0
    6.2517    1.5364   -1.5758 O   0  0  0  0  0  0  0  0  0  0  0  0
    4.5061    1.7168    0.1282 O   0  0  0  0  0  0  0  0  0  0  0  0
    1.7505    0.4896   -1.3124 C   0  0  0  0  0  0  0  0  0  0  0  0
   -0.2182   -0.4737   -0.1103 C   0  0  0  0  0  0  0  0  0  0  0  0
   -0.0719   -1.2113    2.0901 N   0  0  0  0  0  0  0  0  0  0  0  0
   -1.3921   -1.2295    2.2624 C   0  0  0  0  0  0  0  0  0  0  0  0
   -3.6725   -0.8207    1.3606 N   0  0  0  0  0  0  0  0  0  0  0  0
   -5.8053   -1.6277    2.2323 O   0  0  0  0  0  0  0  0  0  0  0  0
   -6.6694   -2.6028    2.8129 C   0  0  0  0  0  0  0  0  0  0  0  0
   -3.9012   -2.9315    2.3462 O   0  0  0  0  0  0  0  0  0  0  0  0
   -1.7140   -1.5784    3.5241 N   0  0  0  0  0  0  0  0  0  0  0  0
   -0.5618   -1.7982    4.1579 N   0  0  0  0  0  0  0  0  0  0  0  0
    0.4372   -1.5641    3.2758 C   0  0  0  0  0  0  0  0  0  0  0  0
   -0.1499   -0.2409   -2.6178 C   0  0  0  0  0  0  0  0  0  0  0  0
   -7.7352   -4.4031    2.2499 H   0  0  0  0  0  0  0  0  0  0  0  0
   -6.1060   -4.2389    1.4923 H   0  0  0  0  0  0  0  0  0  0  0  0
   -7.4847   -3.2273    0.9007 H   0  0  0  0  0  0  0  0  0  0  0  0
   -2.2579   -0.1228   -0.7999 H   0  0  0  0  0  0  0  0  0  0  0  0
    2.4438   -0.8232    3.2084 H   0  0  0  0  0  0  0  0  0  0  0  0
    2.2824   -2.6214    3.0739 H   0  0  0  0  0  0  0  0  0  0  0  0
    2.0475   -1.8063    4.6723 H   0  0  0  0  0  0  0  0  0  0  0  0
    0.0114   -0.0080   -4.7374 H   0  0  0  0  0  0  0  0  0  0  0  0
    3.4928    0.6174   -5.0651 H   0  0  0  0  0  0  0  0  0  0  0  0
    2.5749    2.1819   -5.0769 H   0  0  0  0  0  0  0  0  0  0  0  0
    1.9138    0.7295   -5.9086 H   0  0  0  0  0  0  0  0  0  0  0  0
    4.0950    2.0611   -3.1735 H   0  0  0  0  0  0  0  0  0  0  0  0
    5.7982   -0.9655   -0.2405 H   0  0  0  0  0  0  0  0  0  0  0  0
    4.0178   -1.0929   -0.5210 H   0  0  0  0  0  0  0  0  0  0  0  0
    5.1618   -1.2039   -1.9187 H   0  0  0  0  0  0  0  0  0  0  0  0
    2.2117    0.6518   -0.3486 H   0  0  0  0  0  0  0  0  0  0  0  0
   -4.1970   -0.0713    0.8556 H   0  0  0  0  0  0  0  0  0  0  0  0
   -6.1965   -3.0537    3.7125 H   0  0  0  0  0  0  0  0  0  0  0  0
   -7.6060   -2.0992    3.1324 H   0  0  0  0  0  0  0  0  0  0  0  0
   -1.1283   -0.6948   -2.7024 H   0  0  0  0  0  0  0  0  0  0  0  0
  3  6  2  0
  9 10  1  0
  8 10  2  0
 10 11  1  0
 11 12  1  0
 12 13  1  0
 13 14  1  0
 13 15  2  0
 13 16  2  0
 11 17  2  0
  1 17  1  0
  1 18  1  0
  6 18  1  0
  2 18  2  0
  2 19  1  0
  3 20  1  0
 19 20  1  0
  4 21  1  0
  3 21  1  0
  4 22  1  0
  5 23  1  0
 22 23  1  0
  4 24  2  0
 20 25  2  0
 25 26  1  0
 19 27  1  0
  7 27  1  0
 26 27  2  0
  8 28  1  0
  1 28  2  0
  5 29  1  0
  5 30  1  0
  5 31  1  0
  6 32  1  0
  7 33  1  0
  7 34  1  0
  7 35  1  0
  8 36  1  0
  9 37  1  0
  9 38  1  0
  9 39  1  0
 12 40  1  0
 14 41  1  0
 14 42  1  0
 14 43  1  0
 17 44  1  0
 21 45  1  0
 23 46  1  0
 23 47  1  0
 28 48  1  0
M  END
