
     RDKit          3D

 33 36  0  0  0  0  0  0  0  0999 V2000
   71.8521   15.4032   67.3902 N   0  0  0  0  0  0  0  0  0  0  0  0
   71.9501   12.8554   67.1002 C   0  0  2  0  0  0  0  0  0  0  0  0
   70.7478   12.4522   66.4326 O   0  0  0  0  0  0  0  0  0  0  0  0
   77.3205   13.0857   69.3133 P   0  0  0  0  0  5  0  0  0  0  0  0
   72.4322   14.2538   66.7116 C   0  0  2  0  0  0  0  0  0  0  0  0
   72.0732   19.3611   69.6496 N   0  0  0  0  0  0  0  0  0  0  0  0
   70.7304   20.2063   71.8323 O   0  0  0  0  0  0  0  0  0  0  0  0
   72.3865   16.6763   67.2830 C   0  0  0  0  0  0  0  0  0  0  0  0
   69.9737   14.4123   68.5714 N   0  0  0  0  0  0  0  0  0  0  0  0
   71.2845   22.4503   73.0180 O   0  0  0  0  0  0  0  0  0  0  0  0
   71.6574   17.5523   68.0694 C   0  0  0  0  0  0  0  0  0  0  0  0
   68.1265   13.7499   69.7701 N   0  0  0  0  0  0  0  0  0  0  0  0
   69.3713   18.1722   70.0823 O   0  0  0  0  0  0  0  0  0  0  0  0
   71.8905   19.0159   68.2341 C   0  0  0  0  0  0  0  0  0  0  0  0
   68.7760   15.9777   69.8752 N   0  0  0  0  0  0  0  0  0  0  0  0
   73.8605   14.2771   66.9050 O   0  0  0  0  0  0  0  0  0  0  0  0
   72.1018   20.8162   69.8685 C   0  0  1  0  0  0  0  0  0  0  0  0
   76.0982   13.5539   68.3993 O   0  0  0  0  0  0  0  0  0  0  0  0
   71.0191   21.2689   70.8898 C   0  0  2  0  0  0  0  0  0  0  0  0
   78.4210   14.2198   69.0864 O   0  0  0  0  0  0  0  0  0  0  0  0
   71.6648   22.4405   71.6524 C   0  0  0  0  0  0  0  0  0  0  0  0
   73.1223   22.1348   71.5395 C   0  0  0  0  0  0  0  0  0  0  0  0
   77.0528   12.7800   70.7429 O   0  0  0  0  0  0  0  0  0  0  0  0
   73.3650   21.2410   70.5713 C   0  0  0  0  0  0  0  0  0  0  0  0
   72.9823   11.7734   65.2040 O   0  0  0  0  0  0  0  0  0  0  0  0
   70.6375   16.7639   68.6649 C   0  0  0  0  0  0  0  0  0  0  0  0
   70.7693   15.4585   68.2321 C   0  0  0  0  0  0  0  0  0  0  0  0
   68.9973   14.7173   69.3772 C   0  0  0  0  0  0  0  0  0  0  0  0
   69.5691   17.0686   69.5853 C   0  0  0  0  0  0  0  0  0  0  0  0
   74.3383   12.9104   66.8662 C   0  0  1  0  0  0  0  0  0  0  0  0
   75.0618   12.6113   68.1794 C   0  0  0  0  0  0  0  0  0  0  0  0
   73.1234   12.0148   66.6157 C   0  0  1  0  0  0  0  0  0  0  0  0
   77.9446   11.8685   68.4925 O   0  0  0  0  0  0  0  0  0  0  0  0
  2  3  1  6
  5  1  1  1
  2  5  1  0
  1  8  4  0
  8 11  4  0
 11 14  1  0
  6 14  1  0
  5 16  1  0
 17  6  1  1
  4 18  1  0
 17 19  1  0
 19  7  1  1
  4 20  1  0
 21 10  1  0
 19 21  1  0
 21 22  1  0
  4 23  2  0
 22 24  2  0
 17 24  1  0
 11 26  4  0
  9 27  4  0
 26 27  4  0
  1 27  4  0
 12 28  1  0
 15 28  4  0
  9 28  4  0
 15 29  4  0
 13 29  2  0
 26 29  4  0
 16 30  1  0
 30 31  1  1
 18 31  1  0
 32 25  1  6
 30 32  1  0
  2 32  1  0
  4 33  1  0
M  END
