7PRM_81I_A_401
     RDKit          3D

 32 36  0  0  0  0  0  0  0  0999 V2000
  126.8457   23.4820   -6.7608 C   0  0  0  0  0  0  0  0  0  0  0  0
  125.5800   22.9380   -6.7188 C   0  0  0  0  0  0  0  0  0  0  0  0
  125.3333   21.5925   -6.6232 C   0  0  0  0  0  0  0  0  0  0  0  0
  124.0005   21.0659   -6.5959 N   0  0  0  0  0  0  0  0  0  0  0  0
  123.0396   21.3865   -5.6049 C   0  0  0  0  0  0  0  0  0  0  0  0
  122.9594   22.3742   -4.8318 O   0  0  0  0  0  0  0  0  0  0  0  0
  122.0677   20.2861   -5.6292 C   0  0  0  0  0  0  0  0  0  0  0  0
  121.9899   19.9524   -7.0776 C   0  0  1  0  0  0  0  0  0  0  0  0
  121.1565   20.7106   -7.8748 N   0  0  0  0  0  0  0  0  0  0  0  0
  121.7580   21.7104   -8.7391 C   0  0  0  0  0  0  0  0  0  0  0  0
  121.1859   21.3930  -10.1191 C   0  0  0  0  0  0  0  0  0  0  0  0
  119.7477   21.2225   -9.9261 N   0  0  0  0  0  0  0  0  0  0  0  0
  118.9104   20.5297  -10.8256 C   0  0  0  0  0  0  0  0  0  0  0  0
  117.7879   20.0913  -10.3934 O   0  0  0  0  0  0  0  0  0  0  0  0
  119.2033   20.2550  -12.2200 C   0  0  0  0  0  0  0  0  0  0  0  0
  120.3726   20.5983  -12.7561 O   0  0  0  0  0  0  0  0  0  0  0  0
  120.4079   20.2574  -14.0260 C   0  0  0  0  0  0  0  0  0  0  0  0
  119.2153   19.6566  -14.3634 C   0  0  0  0  0  0  0  0  0  0  0  0
  118.4643   19.6629  -13.2071 C   0  0  0  0  0  0  0  0  0  0  0  0
  119.1587   21.7746   -8.7081 C   0  0  0  0  0  0  0  0  0  0  0  0
  119.8494   21.0982   -7.4954 C   0  0  0  0  0  0  0  0  0  0  0  0
  123.4245   20.1241   -7.5274 C   0  0  0  0  0  0  0  0  0  0  0  0
  126.4493   20.7552   -6.5663 C   0  0  0  0  0  0  0  0  0  0  0  0
  127.7459   21.2788   -6.6078 C   0  0  0  0  0  0  0  0  0  0  0  0
  127.9417   22.6399   -6.7053 C   0  0  0  0  0  0  0  0  0  0  0  0
  129.2512   23.2721   -6.7617 C   0  0  0  0  0  0  0  0  0  0  0  0
  129.5744   24.2982   -7.6234 C   0  0  0  0  0  0  0  0  0  0  0  0
  130.8460   24.8353   -7.6040 C   0  0  0  0  0  0  0  0  0  0  0  0
  131.8451   24.3986   -6.7499 C   0  0  0  0  0  0  0  0  0  0  0  0
  131.5181   23.3781   -5.8945 C   0  0  0  0  0  0  0  0  0  0  0  0
  130.2593   22.8247   -5.8926 C   0  0  0  0  0  0  0  0  0  0  0  0
  133.0917   24.9343   -6.7357 F   0  0  0  0  0  0  0  0  0  0  0  0
  1  2  2  0
  2  3  1  0
  3  4  1  0
  4  5  1  0
  5  6  2  0
  7  5  1  6
  7  8  1  0
  8  9  1  6
 10  9  1  1
 10 11  1  0
 11 12  1  1
 12 13  1  0
 13 14  2  0
 13 15  1  0
 15 16  1  0
 16 17  1  0
 17 18  2  0
 18 19  1  0
 15 19  2  0
 20 12  1  1
 20 21  1  0
 21  9  1  1
  8 22  1  0
 22  4  1  6
  3 23  2  0
 23 24  1  0
  1 25  1  0
 24 25  2  0
 25 26  1  0
 26 27  2  0
 27 28  1  0
 28 29  2  0
 29 30  1  0
 30 31  2  0
 26 31  1  0
 29 32  1  0
M  END
$$$$
