7NR8_UOE_A_408
     RDKit          3D

 84 89  0  0  0  0  0  0  0  0999 V2000
    1.8112    5.2159   10.2178 C   0  0  0  0  0  0  0  0  0  0  0  0
    0.5051    4.6541   10.7949 C   0  0  1  0  0  0  0  0  0  0  0  0
   -2.5904    6.7519   11.0695 C   0  0  0  0  0  0  0  0  0  0  0  0
   -3.7487    7.2985   11.6188 C   0  0  0  0  0  0  0  0  0  0  0  0
   -4.6741    7.9134   10.7588 C   0  0  0  0  0  0  0  0  0  0  0  0
   -4.4277    7.9876    9.3651 C   0  0  0  0  0  0  0  0  0  0  0  0
   -2.3657    6.7968    9.7146 C   0  0  0  0  0  0  0  0  0  0  0  0
   -1.1263    6.1114    9.4596 C   0  0  0  0  0  0  0  0  0  0  0  0
   -5.4167    8.5903    8.4441 C   0  0  0  0  0  0  0  0  0  0  0  0
   -7.5688    8.4311    7.4420 C   0  0  0  0  0  0  0  0  0  0  0  0
  -12.4786    7.4382    8.3253 C   0  0  0  0  0  0  0  0  0  0  0  0
  -11.3232    8.4265   10.0800 C   0  0  0  0  0  0  0  0  0  0  0  0
   -9.9469    8.1840    9.4448 C   0  0  0  0  0  0  0  0  0  0  0  0
   -6.1778   10.2630    6.8866 C   0  0  0  0  0  0  0  0  0  0  0  0
   -5.1700    9.7771    7.7247 C   0  0  0  0  0  0  0  0  0  0  0  0
    0.6393    4.2009   12.2310 C   0  0  0  0  0  0  0  0  0  0  0  0
    2.7253    6.3187   13.0898 C   0  0  0  0  0  0  0  0  0  0  0  0
    0.8185    8.2431    9.8554 C   0  0  0  0  0  0  0  0  0  0  0  0
   -0.4768    8.7456    9.9763 C   0  0  0  0  0  0  0  0  0  0  0  0
   -1.2120    8.5011   11.1537 C   0  0  0  0  0  0  0  0  0  0  0  0
   -3.3996    8.5490   12.4525 C   0  0  0  0  0  0  0  0  0  0  0  0
   -3.7666   11.4250   13.3555 C   0  0  0  0  0  0  0  0  0  0  0  0
   -0.5673    5.6503   10.6882 N   0  0  0  0  0  0  0  0  0  0  0  0
   -1.4869    6.0206   11.7756 C   0  0  0  0  0  0  0  0  0  0  0  0
   -3.2599    7.3995    8.8353 C   0  0  0  0  0  0  0  0  0  0  0  0
   -0.6181    5.9111    8.3251 O   0  0  0  0  0  0  0  0  0  0  0  0
   -6.6046    7.9507    8.2706 N   0  0  0  0  0  0  0  0  0  0  0  0
   -8.8131    7.7314    7.2692 N   0  0  0  0  0  0  0  0  0  0  0  0
  -10.0872    8.0796    7.9164 C   0  0  1  0  0  0  0  0  0  0  0  0
  -11.2081    7.0998    7.5350 C   0  0  0  0  0  0  0  0  0  0  0  0
  -12.2328    7.4020    9.7205 O   0  0  0  0  0  0  0  0  0  0  0  0
   -7.3493    9.5877    6.7624 N   0  0  0  0  0  0  0  0  0  0  0  0
   -3.6179   10.6114    7.7526 Cl  0  0  0  0  0  0  0  0  0  0  0  0
    0.8627    2.9859   12.5025 O   0  0  0  0  0  0  0  0  0  0  0  0
    0.5447    5.1711   13.2872 N   0  0  0  0  0  0  0  0  0  0  0  0
    1.1988    6.4825   13.2184 C   0  0  2  0  0  0  0  0  0  0  0  0
    3.1243    5.0350   13.4927 O   0  0  0  0  0  0  0  0  0  0  0  0
    0.6397    7.2824   12.0638 C   0  0  0  0  0  0  0  0  0  0  0  0
    1.3836    7.5076   10.8961 C   0  0  0  0  0  0  0  0  0  0  0  0
   -0.6247    7.7791   12.1515 N   0  0  0  0  0  0  0  0  0  0  0  0
   -2.5668    8.9909   11.3219 N   0  0  0  0  0  0  0  0  0  0  0  0
   -4.7201    9.3353   12.5193 C   0  0  0  0  0  0  0  0  0  0  0  0
   -4.5123   10.7757   12.2617 N   0  0  0  0  0  0  0  0  0  0  0  0
   -3.8999   11.0525   10.9361 C   0  0  0  0  0  0  0  0  0  0  0  0
   -3.1965    9.8372   10.2953 C   0  0  0  0  0  0  0  0  0  0  0  0
    2.1497    6.1055   10.7910 H   0  0  0  0  0  0  0  0  0  0  0  0
    2.6064    4.4382   10.2529 H   0  0  0  0  0  0  0  0  0  0  0  0
    1.6564    5.5114    9.1556 H   0  0  0  0  0  0  0  0  0  0  0  0
    0.2394    3.7624   10.1866 H   0  0  0  0  0  0  0  0  0  0  0  0
   -3.9368    7.2392   12.6825 H   0  0  0  0  0  0  0  0  0  0  0  0
   -5.5933    8.3054   11.1722 H   0  0  0  0  0  0  0  0  0  0  0  0
  -13.2534    6.6798    8.0868 H   0  0  0  0  0  0  0  0  0  0  0  0
  -12.8840    8.4284    8.0115 H   0  0  0  0  0  0  0  0  0  0  0  0
  -11.2066    8.4219   11.1848 H   0  0  0  0  0  0  0  0  0  0  0  0
  -11.7174    9.4305    9.8015 H   0  0  0  0  0  0  0  0  0  0  0  0
   -9.5248    7.2540    9.8753 H   0  0  0  0  0  0  0  0  0  0  0  0
   -9.2652    9.0232    9.7001 H   0  0  0  0  0  0  0  0  0  0  0  0
   -6.0247   11.1702    6.3154 H   0  0  0  0  0  0  0  0  0  0  0  0
    3.2479    7.0867   13.7082 H   0  0  0  0  0  0  0  0  0  0  0  0
    3.0351    6.4684   12.0325 H   0  0  0  0  0  0  0  0  0  0  0  0
    1.3860    8.4249    8.9519 H   0  0  0  0  0  0  0  0  0  0  0  0
   -0.8866    9.3220    9.1577 H   0  0  0  0  0  0  0  0  0  0  0  0
   -3.6233    7.4647   12.3501 H   0  0  0  0  0  0  0  0  0  0  0  0
   -2.8498    8.7061   13.4060 H   0  0  0  0  0  0  0  0  0  0  0  0
   -2.7024   11.1057   13.3632 H   0  0  0  0  0  0  0  0  0  0  0  0
   -4.2301   11.1929   14.3379 H   0  0  0  0  0  0  0  0  0  0  0  0
   -3.8045   12.5270   13.2312 H   0  0  0  0  0  0  0  0  0  0  0  0
   -0.9829    6.6868   12.5045 H   0  0  0  0  0  0  0  0  0  0  0  0
   -1.8904    5.1163   12.2765 H   0  0  0  0  0  0  0  0  0  0  0  0
   -3.0545    7.4151    7.7723 H   0  0  0  0  0  0  0  0  0  0  0  0
   -8.8001    6.8711    6.6768 H   0  0  0  0  0  0  0  0  0  0  0  0
  -10.3926    9.0854    7.5433 H   0  0  0  0  0  0  0  0  0  0  0  0
  -10.9202    6.0515    7.7594 H   0  0  0  0  0  0  0  0  0  0  0  0
  -11.4166    7.1771    6.4457 H   0  0  0  0  0  0  0  0  0  0  0  0
   -0.0801    4.9570   14.0933 H   0  0  0  0  0  0  0  0  0  0  0  0
    0.9852    7.0486   14.1530 H   0  0  0  0  0  0  0  0  0  0  0  0
    3.0727    5.0143   14.4873 H   0  0  0  0  0  0  0  0  0  0  0  0
    2.3870    7.1165   10.7895 H   0  0  0  0  0  0  0  0  0  0  0  0
   -5.4321    8.9319   11.7659 H   0  0  0  0  0  0  0  0  0  0  0  0
   -5.1969    9.1815   13.5114 H   0  0  0  0  0  0  0  0  0  0  0  0
   -4.7024   11.3985   10.2478 H   0  0  0  0  0  0  0  0  0  0  0  0
   -3.1680   11.8922   10.9913 H   0  0  0  0  0  0  0  0  0  0  0  0
   -2.4655   10.2078    9.5450 H   0  0  0  0  0  0  0  0  0  0  0  0
   -3.9469    9.2274    9.7439 H   0  0  0  0  0  0  0  0  0  0  0  0
  2  1  1  0
  3  4  4  0
  4  5  4  0
  5  6  4  0
  3  7  4  0
  7  8  1  0
  6  9  1  0
 12 13  1  0
  9 15  4  0
 14 15  4  0
  2 16  1  0
 18 19  4  0
 19 20  4  0
  8 23  1  0
  2 23  1  0
 23 24  1  0
  3 24  1  0
  6 25  4  0
  7 25  4  0
  8 26  2  0
 10 27  4  0
  9 27  4  0
 10 28  1  0
 13 29  1  0
 28 29  1  0
 11 30  1  0
 29 30  1  0
 11 31  1  0
 12 31  1  0
 10 32  4  0
 14 32  4  0
 15 33  1  0
 16 34  2  0
 16 35  1  0
 35 36  1  0
 36 17  1  0
 17 37  1  0
 36 38  1  0
 38 39  4  0
 18 39  4  0
 20 40  4  0
 38 40  4  0
 21 41  1  0
 20 41  1  0
 21 42  1  0
 22 43  1  0
 42 43  1  0
 43 44  1  0
 44 45  1  0
 41 45  1  0
  1 46  1  0
  1 47  1  0
  1 48  1  0
  2 49  1  1
  4 50  1  0
  5 51  1  0
 11 52  1  0
 11 53  1  0
 12 54  1  0
 12 55  1  0
 13 56  1  0
 13 57  1  0
 14 58  1  0
 17 59  1  0
 17 60  1  0
 18 61  1  0
 19 62  1  0
 21 63  1  0
 21 64  1  0
 22 65  1  0
 22 66  1  0
 22 67  1  0
 24 68  1  0
 24 69  1  0
 25 70  1  0
 28 71  1  0
 29 72  1  1
 30 73  1  0
 30 74  1  0
 35 75  1  0
 36 76  1  6
 37 77  1  0
 39 78  1  0
 42 79  1  0
 42 80  1  0
 44 81  1  0
 44 82  1  0
 45 83  1  0
 45 84  1  0
M  END
