7ZHP_IQY_A_408
     RDKit          3D

 27 30  0  0  0  0  0  0  0  0999 V2000
   71.5836   38.4556    0.1647 N   0  0  0  0  0  0  0  0  0  0  0  0
   66.7837   35.8442    4.2548 C   0  0  2  0  0  0  0  0  0  0  0  0
   73.8549   38.0762   -0.1707 N   0  0  0  0  0  0  0  0  0  0  0  0
   67.3815   37.8008    2.5251 C   0  0  0  0  0  0  0  0  0  0  0  0
   67.7083   38.8684    1.5955 C   0  0  0  0  0  0  0  0  0  0  0  0
   66.7213   39.7733    1.2736 C   0  0  0  0  0  0  0  0  0  0  0  0
   65.5925   36.1686    4.8781 O   0  0  0  0  0  0  0  0  0  0  0  0
   66.6144   34.5616    3.4942 C   0  0  0  0  0  0  0  0  0  0  0  0
   66.5143   33.3563    4.3685 C   0  0  0  0  0  0  0  0  0  0  0  0
   67.9351   35.7760    5.2365 C   0  0  0  0  0  0  0  0  0  0  0  0
   68.3954   37.1486    5.6433 C   0  0  0  0  0  0  0  0  0  0  0  0
   67.1049   36.9096    3.3034 C   0  0  0  0  0  0  0  0  0  0  0  0
   68.9803   38.9521    1.0630 C   0  0  0  0  0  0  0  0  0  0  0  0
   69.2354   39.9733    0.1948 C   0  0  0  0  0  0  0  0  0  0  0  0
   68.2479   40.8803   -0.1284 C   0  0  0  0  0  0  0  0  0  0  0  0
   66.9713   40.8117    0.3944 C   0  0  0  0  0  0  0  0  0  0  0  0
   70.3512   40.3460   -0.4985 C   0  0  0  0  0  0  0  0  0  0  0  0
   71.6233   39.6486   -0.4423 C   0  0  0  0  0  0  0  0  0  0  0  0
   72.8742   40.0419   -0.9290 C   0  0  0  0  0  0  0  0  0  0  0  0
   73.9960   39.2725   -0.8029 C   0  0  0  0  0  0  0  0  0  0  0  0
   72.6576   37.6602    0.3147 C   0  0  0  0  0  0  0  0  0  0  0  0
   72.5750   36.3821    0.9744 N   0  0  0  0  0  0  0  0  0  0  0  0
   73.1091   41.3483   -1.6427 C   0  0  0  0  0  0  0  0  0  0  0  0
   72.0076   41.4662   -2.6999 C   0  0  0  0  0  0  0  0  0  0  0  0
   70.8832   42.2928   -2.1648 C   0  0  0  0  0  0  0  0  0  0  0  0
   70.0694   41.4697   -1.2451 C   0  0  0  0  0  0  0  0  0  0  0  0
   68.7619   41.7680   -0.9896 N   0  0  0  0  0  0  0  0  0  0  0  0
  4  5  1  0
  5  6  2  0
  2  7  1  1
  2  8  1  0
  8  9  1  0
  2 10  1  0
 10 11  1  0
  4 12  3  0
  2 12  1  0
  5 13  1  0
 13 14  2  0
 14 15  1  0
 15 16  2  0
  6 16  1  0
 14 17  1  0
 17 18  1  0
  1 18  2  0
 18 19  1  0
 19 20  2  0
  3 20  1  0
  3 21  2  0
  1 21  1  0
 21 22  1  0
 19 23  1  0
 23 24  1  0
 24 25  1  0
 25 26  1  0
 17 26  2  0
 26 27  1  0
 15 27  1  0
M  END
$$$$
