7MGT_ZD4_A_403
     RDKit          3D

 28 30  0  0  0  0  0  0  0  0999 V2000
   43.4418   33.4630   19.9297 C   0  0  2  0  0  0  0  0  0  0  0  0
   41.6153   33.5255   23.8528 C   0  0  0  0  0  0  0  0  0  0  0  0
   44.0265   33.0768   18.6188 C   0  0  1  0  0  0  0  0  0  0  0  0
   43.1188   33.5780   17.5702 C   0  0  1  0  0  0  0  0  0  0  0  0
   41.9431   32.8756   21.7032 C   0  0  0  0  0  0  0  0  0  0  0  0
   42.6282   34.8875   18.1256 C   0  0  1  0  0  0  0  0  0  0  0  0
   40.8256   31.9810   21.8314 C   0  0  0  0  0  0  0  0  0  0  0  0
   41.2065   35.1920   17.7930 C   0  0  0  0  0  0  0  0  0  0  0  0
   40.1743   31.9446   23.0638 C   0  0  0  0  0  0  0  0  0  0  0  0
   41.6722   31.8341   19.7525 C   0  0  0  0  0  0  0  0  0  0  0  0
   40.5899   32.7294   24.0432 N   0  0  0  0  0  0  0  0  0  0  0  0
   42.2801   33.5952   22.7476 N   0  0  0  0  0  0  0  0  0  0  0  0
   39.0364   31.0783   23.2417 N   0  0  0  0  0  0  0  0  0  0  0  0
   40.7099   31.3221   20.5415 N   0  0  0  0  0  0  0  0  0  0  0  0
   42.3711   32.7036   20.4554 N   0  0  0  0  0  0  0  0  0  0  0  0
   39.5919   38.2014   17.0794 O   0  0  0  0  0  0  0  0  0  0  0  0
   37.1315   34.4885   15.9234 O   0  0  0  0  0  0  0  0  0  0  0  0
   45.2899   33.7635   18.4477 O   0  0  0  0  0  0  0  0  0  0  0  0
   38.7768   37.5145   19.2738 O   0  0  0  0  0  0  0  0  0  0  0  0
   39.1152   35.4217   15.0354 O   0  0  0  0  0  0  0  0  0  0  0  0
   43.8008   33.7812   16.3295 O   0  0  0  0  0  0  0  0  0  0  0  0
   38.5236   35.8835   17.4401 O   0  0  0  0  0  0  0  0  0  0  0  0
   37.2637   36.8556   15.4070 O   0  0  0  0  0  0  0  0  0  0  0  0
   42.8361   34.7990   19.6046 O   0  0  0  0  0  0  0  0  0  0  0  0
   40.9155   36.4726   18.3075 O   0  0  0  0  0  0  0  0  0  0  0  0
   39.4324   37.0880   18.0295 P   0  0  1  0  0  0  0  0  0  0  0  0
   37.9765   35.6811   15.9245 P   0  0  2  0  0  0  0  0  0  0  0  0
   42.1928   34.5680   25.1543 Cl  0  0  0  0  0  0  0  0  0  0  0  0
  1  3  1  0
  3  4  1  0
  4  6  1  0
  5  7  1  0
  6  8  1  1
  7  9  2  0
  2 11  2  0
  9 11  1  0
  2 12  1  0
  5 12  2  0
  9 13  1  0
  7 14  1  0
 10 14  2  0
  5 15  1  0
  1 15  1  6
 10 15  1  0
  3 18  1  6
  4 21  1  6
  6 24  1  0
  1 24  1  0
  8 25  1  0
 16 26  2  0
 22 26  1  0
 26 19  1  1
 25 26  1  0
 23 27  2  0
 27 17  1  1
 22 27  1  0
 20 27  1  0
  2 28  1  0
M  END
