7AVI_S2Q_B_1101
     RDKit          3D

 47 49  0  0  0  0  0  0  0  0999 V2000
   -0.7027    2.6188   -2.3158 C   0  0  0  0  0  0  0  0  0  0  0  0
   -0.0992    1.5475   -1.7372 C   0  0  0  0  0  0  0  0  0  0  0  0
   -0.3859    1.1830   -0.4268 C   0  0  0  0  0  0  0  0  0  0  0  0
   -1.3300    1.9628    0.2773 C   0  0  0  0  0  0  0  0  0  0  0  0
   -1.7059    1.5981    1.6572 C   0  0  0  0  0  0  0  0  0  0  0  0
   -1.1313   -0.3683    3.1217 C   0  0  1  0  0  0  0  0  0  0  0  0
   -0.5569   -0.4433    4.5399 C   0  0  0  0  0  0  0  0  0  0  0  0
    0.7430   -1.7199    2.0575 C   0  0  0  0  0  0  0  0  0  0  0  0
    0.2696   -3.5212    0.5121 C   0  0  0  0  0  0  0  0  0  0  0  0
    1.5833   -0.1989   -2.6934 C   0  0  0  0  0  0  0  0  0  0  0  0
    0.7369   -1.4624   -2.5066 C   0  0  0  0  0  0  0  0  0  0  0  0
   -0.2894    2.7559   -3.5487 O   0  0  0  0  0  0  0  0  0  0  0  0
    0.5680    1.8111   -3.8354 N   0  0  0  0  0  0  0  0  0  0  0  0
    0.7150    1.0342   -2.7319 C   0  0  0  0  0  0  0  0  0  0  0  0
   -1.6116    3.3845   -1.6661 N   0  0  0  0  0  0  0  0  0  0  0  0
   -1.9397    3.0679   -0.3763 C   0  0  0  0  0  0  0  0  0  0  0  0
   -0.7775    0.9073    2.5006 N   0  0  0  0  0  0  0  0  0  0  0  0
   -2.8540    1.8808    2.0949 O   0  0  0  0  0  0  0  0  0  0  0  0
   -0.6352   -1.5036    2.2490 C   0  0  0  0  0  0  0  0  0  0  0  0
    1.1888   -2.7270    1.1985 C   0  0  0  0  0  0  0  0  0  0  0  0
   -1.5532   -2.2973    1.5389 C   0  0  0  0  0  0  0  0  0  0  0  0
   -1.1038   -3.3082    0.6759 C   0  0  0  0  0  0  0  0  0  0  0  0
    2.6711   -0.0882   -1.6197 C   0  0  0  0  0  0  0  0  0  0  0  0
   -2.2486   -4.2698   -0.2527 S   0  0  0  0  0  6  0  0  0  0  0  0
   -1.8614   -5.7209   -0.1772 O   0  0  0  0  0  0  0  0  0  0  0  0
   -3.6356   -4.1095    0.3058 O   0  0  0  0  0  0  0  0  0  0  0  0
   -2.2305   -3.7439   -1.9001 N   0  0  0  0  0  0  0  0  0  0  0  0
    0.0745    0.3182    0.0251 H   0  0  0  0  0  0  0  0  0  0  0  0
   -2.2380   -0.4336    3.2264 H   0  0  0  0  0  0  0  0  0  0  0  0
    0.5389   -0.2665    4.5435 H   0  0  0  0  0  0  0  0  0  0  0  0
   -0.7667   -1.4392    4.9854 H   0  0  0  0  0  0  0  0  0  0  0  0
   -1.0340    0.3322    5.1761 H   0  0  0  0  0  0  0  0  0  0  0  0
    1.4754   -1.0998    2.5574 H   0  0  0  0  0  0  0  0  0  0  0  0
    0.6277   -4.2899   -0.1617 H   0  0  0  0  0  0  0  0  0  0  0  0
    2.0977   -0.2842   -3.6764 H   0  0  0  0  0  0  0  0  0  0  0  0
    0.2023   -1.4453   -1.5362 H   0  0  0  0  0  0  0  0  0  0  0  0
   -0.0132   -1.5411   -3.3225 H   0  0  0  0  0  0  0  0  0  0  0  0
    1.3836   -2.3651   -2.5394 H   0  0  0  0  0  0  0  0  0  0  0  0
   -2.6691    3.6754    0.1441 H   0  0  0  0  0  0  0  0  0  0  0  0
    0.2359    1.1485    2.4121 H   0  0  0  0  0  0  0  0  0  0  0  0
    2.2502   -2.8834    1.0541 H   0  0  0  0  0  0  0  0  0  0  0  0
   -2.6153   -2.1177    1.6464 H   0  0  0  0  0  0  0  0  0  0  0  0
    3.3769   -0.9419   -1.7086 H   0  0  0  0  0  0  0  0  0  0  0  0
    3.2475    0.8516   -1.7557 H   0  0  0  0  0  0  0  0  0  0  0  0
    2.2396   -0.0998   -0.5983 H   0  0  0  0  0  0  0  0  0  0  0  0
   -1.2760   -3.9482   -2.2732 H   0  0  0  0  0  0  0  0  0  0  0  0
   -2.8950   -4.3567   -2.4238 H   0  0  0  0  0  0  0  0  0  0  0  0
  1  2  1  0
  2  3  2  0
  3  4  1  0
  4  5  1  0
  6  7  1  0
 10 11  1  0
  1 12  1  0
 12 13  1  0
 10 14  1  0
  2 14  1  0
 13 14  2  0
  1 15  2  0
  4 16  2  0
 15 16  1  0
  6 17  1  0
  5 17  1  0
  5 18  2  0
  6 19  1  0
  8 19  2  0
  8 20  1  0
  9 20  2  0
 19 21  1  0
 21 22  2  0
  9 22  1  0
 10 23  1  0
 22 24  1  0
 24 25  2  0
 24 26  2  0
 24 27  1  0
  3 28  1  0
  6 29  1  1
  7 30  1  0
  7 31  1  0
  7 32  1  0
  8 33  1  0
  9 34  1  0
 10 35  1  0
 11 36  1  0
 11 37  1  0
 11 38  1  0
 16 39  1  0
 17 40  1  0
 20 41  1  0
 21 42  1  0
 23 43  1  0
 23 44  1  0
 23 45  1  0
 27 46  1  0
 27 47  1  0
M  END
