1Y6B_AAX_A_201
     RDKit          3D

 34 38  0  0  0  0  0  0  0  0999 V2000
    0.2481   30.1076   22.5758 O   0  0  0  0  0  0  0  0  0  0  0  0
   -0.2237   29.8875   21.1676 S   0  0  2  0  0  6  0  0  0  0  0  0
    0.2410   31.0627   20.3602 O   0  0  0  0  0  0  0  0  0  0  0  0
   -1.9063   29.8060   21.0806 N   0  0  0  0  0  0  0  0  0  0  0  0
   -2.5087   29.9109   19.8102 C   0  0  0  0  0  0  0  0  0  0  0  0
   -4.0118   29.8215   19.9561 C   0  0  2  0  0  0  0  0  0  0  0  0
   -4.8521   29.8678   18.6891 C   0  0  0  0  0  0  0  0  0  0  0  0
   -4.8116   31.0816   19.5143 C   0  0  0  0  0  0  0  0  0  0  0  0
    0.5591   28.4548   20.5454 C   0  0  0  0  0  0  0  0  0  0  0  0
    0.2079   27.1738   20.9175 C   0  0  0  0  0  0  0  0  0  0  0  0
    0.9101   26.0996   20.3739 C   0  0  0  0  0  0  0  0  0  0  0  0
    1.5908   28.6349   19.6482 C   0  0  0  0  0  0  0  0  0  0  0  0
    2.2698   27.5654   19.1239 C   0  0  0  0  0  0  0  0  0  0  0  0
    1.9448   26.2724   19.4757 C   0  0  0  0  0  0  0  0  0  0  0  0
    2.6560   25.2109   18.9246 O   0  0  0  0  0  0  0  0  0  0  0  0
    2.2005   23.8961   19.2388 C   0  0  0  0  0  0  0  0  0  0  0  0
    3.3202   27.8526   18.1791 N   0  0  0  0  0  0  0  0  0  0  0  0
    3.0738   28.9628   17.3213 C   0  0  0  0  0  0  0  0  0  0  0  0
    2.2225   29.9105   17.6257 O   0  0  0  0  0  0  0  0  0  0  0  0
    2.1805   30.8116   16.6795 C   0  0  0  0  0  0  0  0  0  0  0  0
    3.0695   30.4268   15.6812 C   0  0  0  0  0  0  0  0  0  0  0  0
    3.5972   29.2718   16.1297 N   0  0  0  0  0  0  0  0  0  0  0  0
    1.3921   32.0283   16.5787 C   0  0  0  0  0  0  0  0  0  0  0  0
    0.1908   32.2221   17.2291 C   0  0  0  0  0  0  0  0  0  0  0  0
   -0.4987   33.3978   17.1032 C   0  0  0  0  0  0  0  0  0  0  0  0
    0.0409   34.3807   16.3088 C   0  0  0  0  0  0  0  0  0  0  0  0
    1.2431   34.2277   15.6386 C   0  0  0  0  0  0  0  0  0  0  0  0
    1.9268   33.0390   15.7746 C   0  0  0  0  0  0  0  0  0  0  0  0
   -1.7604   33.5503   17.8088 C   0  0  0  0  0  0  0  0  0  0  0  0
   -2.3065   32.5212   18.5784 C   0  0  0  0  0  0  0  0  0  0  0  0
   -3.4868   32.6918   19.2266 N   0  0  0  0  0  0  0  0  0  0  0  0
   -4.1952   33.8230   19.1806 C   0  0  0  0  0  0  0  0  0  0  0  0
   -3.6791   34.8635   18.4246 C   0  0  0  0  0  0  0  0  0  0  0  0
   -2.4811   34.7429   17.7440 C   0  0  0  0  0  0  0  0  0  0  0  0
  1  2  2  0
  2  3  2  0
  2  4  1  1
  5  4  1  6
  6  5  1  6
  6  7  1  0
  8  6  1  6
  7  8  1  1
  2  9  1  0
  9 10  2  0
 10 11  1  0
  9 12  1  0
 12 13  2  0
 11 14  2  0
 13 14  1  0
 14 15  1  0
 16 15  1  1
 13 17  1  0
 17 18  1  0
 18 19  1  0
 19 20  1  0
 20 21  2  0
 18 22  2  0
 21 22  1  0
 20 23  1  0
 23 24  2  0
 24 25  1  0
 25 26  2  0
 26 27  1  0
 23 28  1  0
 27 28  2  0
 25 29  1  0
 29 30  2  0
 30 31  1  0
 31 32  2  0
 32 33  1  0
 29 34  1  0
 33 34  2  0
M  END
$$$$
