7FHA_ADX_A_1001
     RDKit          3D

 27 29  0  0  0  0  0  0  0  0999 V2000
  -27.9228    9.3749   -9.1773 S   0  0  2  0  0  0  0  0  0  0  0  0
  -28.0635    8.4633  -10.0598 O   0  0  0  0  0  0  0  0  0  0  0  0
  -27.7614    8.8131   -8.0363 O   0  0  0  0  0  0  0  0  0  0  0  0
  -28.8976   10.2052   -9.1635 O   0  0  0  0  0  0  0  0  0  0  0  0
  -26.1855   11.1219  -10.4644 P   0  0  2  0  0  0  0  0  0  0  0  0
  -24.8928   10.8358  -10.7596 O   0  0  0  0  0  0  0  0  0  0  0  0
  -26.5036   12.3438   -9.9104 O   0  0  0  0  0  0  0  0  0  0  0  0
  -26.6414   10.0455   -9.4512 O   0  0  0  0  0  0  0  0  0  0  0  0
  -27.0292   10.8780  -11.7333 O   0  0  0  0  0  0  0  0  0  0  0  0
  -28.4232   10.8159  -11.7900 C   0  0  0  0  0  0  0  0  0  0  0  0
  -28.9980   10.1957  -13.0688 C   0  0  1  0  0  0  0  0  0  0  0  0
  -28.0344   10.0166  -14.0610 O   0  0  0  0  0  0  0  0  0  0  0  0
  -29.5594    8.7837  -12.8085 C   0  0  1  0  0  0  0  0  0  0  0  0
  -30.6232    8.5551  -13.6521 O   0  0  0  0  0  0  0  0  0  0  0  0
  -28.3832    7.8888  -13.0825 C   0  0  1  0  0  0  0  0  0  0  0  0
  -28.6930    6.5879  -13.4282 O   0  0  0  0  0  0  0  0  0  0  0  0
  -27.8082    8.6505  -14.2488 C   0  0  2  0  0  0  0  0  0  0  0  0
  -26.4160    8.5779  -14.6205 N   0  0  0  0  0  0  0  0  0  0  0  0
  -25.4472    9.2252  -14.0978 C   0  0  0  0  0  0  0  0  0  0  0  0
  -24.3416    9.0045  -14.7257 N   0  0  0  0  0  0  0  0  0  0  0  0
  -24.5954    8.2067  -15.7285 C   0  0  0  0  0  0  0  0  0  0  0  0
  -23.8629    7.5792  -16.8163 C   0  0  0  0  0  0  0  0  0  0  0  0
  -22.5538    7.7923  -16.9776 N   0  0  0  0  0  0  0  0  0  0  0  0
  -24.5495    6.7831  -17.6389 N   0  0  0  0  0  0  0  0  0  0  0  0
  -25.8353    6.5644  -17.5172 C   0  0  0  0  0  0  0  0  0  0  0  0
  -26.5603    7.0986  -16.5542 N   0  0  0  0  0  0  0  0  0  0  0  0
  -26.0095    7.9258  -15.6594 C   0  0  0  0  0  0  0  0  0  0  0  0
  1  2  2  0
  1  3  2  0
  1  4  1  1
  5  6  2  0
  5  7  1  1
  1  8  1  0
  5  8  1  0
  5  9  1  0
  9 10  1  0
 11 10  1  1
 11 12  1  0
 11 13  1  0
 13 14  1  6
 13 15  1  0
 15 16  1  6
 12 17  1  0
 15 17  1  0
 17 18  1  1
 18 19  1  0
 19 20  2  0
 20 21  1  0
 21 22  2  0
 22 23  1  0
 22 24  1  0
 24 25  2  0
 25 26  1  0
 18 27  1  0
 21 27  1  0
 26 27  2  0
M  END
