7UJ5_DGL_B_301
     RDKit          3D

 19 18  0  0  0  0  0  0  0  0999 V2000
  -22.4991  -16.8005  -41.3391 N   0  0  0  0  0  0  0  0  0  0  0  0
  -21.9891  -17.6138  -40.2297 C   0  0  1  0  0  0  0  0  0  0  0  0
  -21.4843  -16.7231  -39.1142 C   0  0  0  0  0  0  0  0  0  0  0  0
  -20.5698  -15.9171  -39.3788 O   0  0  0  0  0  0  0  0  0  0  0  0
  -23.1228  -18.4921  -39.6929 C   0  0  0  0  0  0  0  0  0  0  0  0
  -24.4764  -18.0498  -40.2138 C   0  0  0  0  0  0  0  0  0  0  0  0
  -25.6130  -18.7336  -39.4459 C   0  0  0  0  0  0  0  0  0  0  0  0
  -25.3530  -19.8077  -38.8175 O   0  0  0  0  0  0  0  0  0  0  0  0
  -26.7596  -18.2136  -39.4874 O   0  0  0  0  0  0  0  0  0  0  0  0
  -21.9840  -16.7835  -37.9721 O   0  0  0  0  0  0  0  0  0  0  0  0
  -21.7497  -16.2099  -41.7050 H   0  0  0  0  0  0  0  0  0  0  0  0
  -23.2608  -16.2145  -41.0056 H   0  0  0  0  0  0  0  0  0  0  0  0
  -21.1831  -18.2190  -40.5803 H   0  0  0  0  0  0  0  0  0  0  0  0
  -23.1288  -18.4362  -38.6269 H   0  0  0  0  0  0  0  0  0  0  0  0
  -22.9516  -19.4959  -40.0224 H   0  0  0  0  0  0  0  0  0  0  0  0
  -24.5505  -18.3054  -41.2521 H   0  0  0  0  0  0  0  0  0  0  0  0
  -24.5663  -16.9926  -40.0767 H   0  0  0  0  0  0  0  0  0  0  0  0
  -26.8987  -17.4198  -39.9656 H   0  0  0  0  0  0  0  0  0  0  0  0
  -22.6709  -17.3960  -37.7921 H   0  0  0  0  0  0  0  0  0  0  0  0
  2  1  1  0
  2  3  1  0
  3  4  2  0
  2  5  1  0
  5  6  1  0
  6  7  1  0
  7  8  2  0
  7  9  1  0
  3 10  1  0
  1 11  1  0
  1 12  1  0
  2 13  1  6
  5 14  1  0
  5 15  1  0
  6 16  1  0
  6 17  1  0
  9 18  1  0
 10 19  1  0
M  END
