7S45_ACO_A_202
     RDKit          3D

 51 53  0  0  0  0  0  0  0  0999 V2000
  -12.0936  -33.9619   28.4435 N   0  0  0  0  0  0  0  0  0  0  0  0
  -13.1956  -34.7008   28.2437 C   0  0  0  0  0  0  0  0  0  0  0  0
  -14.4035  -34.4714   28.7987 N   0  0  0  0  0  0  0  0  0  0  0  0
  -14.5033  -33.4156   29.6096 C   0  0  0  0  0  0  0  0  0  0  0  0
  -13.3506  -32.5655   29.9021 C   0  0  0  0  0  0  0  0  0  0  0  0
  -12.1039  -32.9119   29.2481 C   0  0  0  0  0  0  0  0  0  0  0  0
  -10.9904  -32.1977   29.4676 N   0  0  0  0  0  0  0  0  0  0  0  0
  -13.7252  -31.5824   30.7411 N   0  0  0  0  0  0  0  0  0  0  0  0
  -15.0507  -31.7824   30.9603 C   0  0  0  0  0  0  0  0  0  0  0  0
  -15.4799  -32.8666   30.2985 N   0  0  0  0  0  0  0  0  0  0  0  0
  -16.8489  -33.4053   30.2939 C   0  0  1  0  0  0  0  0  0  0  0  0
  -17.3620  -33.4787   28.8883 C   0  0  2  0  0  0  0  0  0  0  0  0
  -18.0674  -32.2701   28.5484 O   0  0  0  0  0  0  0  0  0  0  0  0
  -18.2443  -34.7346   28.8968 C   0  0  2  0  0  0  0  0  0  0  0  0
  -19.5299  -34.3480   29.3639 O   0  0  0  0  0  0  0  0  0  0  0  0
  -20.5608  -35.4819   29.9410 P   0  0  2  0  0  0  0  0  0  0  0  0
  -20.8576  -36.3643   28.7826 O   0  0  0  0  0  0  0  0  0  0  0  0
  -21.6445  -34.5938   30.4074 O   0  0  0  0  0  0  0  0  0  0  0  0
  -19.8228  -36.2604   31.0005 O   0  0  0  0  0  0  0  0  0  0  0  0
  -17.5791  -35.6134   29.9374 C   0  0  2  0  0  0  0  0  0  0  0  0
  -16.7311  -34.7496   30.7280 O   0  0  0  0  0  0  0  0  0  0  0  0
  -16.7313  -36.6890   29.3079 C   0  0  0  0  0  0  0  0  0  0  0  0
  -15.3565  -36.3818   29.5659 O   0  0  0  0  0  0  0  0  0  0  0  0
  -14.2092  -37.0712   28.7322 P   0  0  2  0  0  0  0  0  0  0  0  0
  -14.2448  -36.4792   27.3356 O   0  0  0  0  0  0  0  0  0  0  0  0
  -14.3168  -38.5887   28.9390 O   0  0  0  0  0  0  0  0  0  0  0  0
  -12.9755  -36.6431   29.5373 O   0  0  0  0  0  0  0  0  0  0  0  0
  -11.4985  -36.7841   28.9527 P   0  0  2  0  0  0  0  0  0  0  0  0
  -11.5085  -36.6605   27.4487 O   0  0  0  0  0  0  0  0  0  0  0  0
  -11.0626  -37.9113   29.7453 O   0  0  0  0  0  0  0  0  0  0  0  0
  -10.6415  -35.5282   29.5450 O   0  0  0  0  0  0  0  0  0  0  0  0
   -8.9088  -37.0063   30.3391 C   0  0  1  0  0  0  0  0  0  0  0  0
   -9.7756  -35.7975   30.5840 C   0  0  0  0  0  0  0  0  0  0  0  0
   -9.6964  -38.0891   31.0676 C   0  0  0  0  0  0  0  0  0  0  0  0
   -8.7262  -37.4258   28.8896 C   0  0  0  0  0  0  0  0  0  0  0  0
   -7.4716  -36.8830   30.9540 C   0  0  1  0  0  0  0  0  0  0  0  0
   -7.4661  -36.8564   32.3853 O   0  0  0  0  0  0  0  0  0  0  0  0
   -6.5482  -38.0005   30.5330 C   0  0  0  0  0  0  0  0  0  0  0  0
   -6.3647  -38.2626   29.3422 O   0  0  0  0  0  0  0  0  0  0  0  0
   -5.9543  -38.6253   31.5457 N   0  0  0  0  0  0  0  0  0  0  0  0
   -6.5853  -39.7106   32.2922 C   0  0  0  0  0  0  0  0  0  0  0  0
   -5.8650  -39.9554   33.6144 C   0  0  0  0  0  0  0  0  0  0  0  0
   -6.6387  -39.3844   34.7878 C   0  0  0  0  0  0  0  0  0  0  0  0
   -7.0271  -38.2026   34.7432 O   0  0  0  0  0  0  0  0  0  0  0  0
   -6.8249  -40.2052   35.8198 N   0  0  0  0  0  0  0  0  0  0  0  0
   -7.2703  -41.5851   35.6555 C   0  0  0  0  0  0  0  0  0  0  0  0
   -8.6710  -41.7773   36.2320 C   0  0  0  0  0  0  0  0  0  0  0  0
   -9.2469  -43.4322   35.9782 S   0  0  0  0  0  0  0  0  0  0  0  0
   -9.3626  -43.4243   34.2795 C   0  0  0  0  0  0  0  0  0  0  0  0
   -9.4279  -44.4859   33.6695 O   0  0  0  0  0  0  0  0  0  0  0  0
   -9.2476  -42.1225   33.5329 C   0  0  0  0  0  0  0  0  0  0  0  0
  1  2  2  0
  2  3  1  0
  3  4  2  0
  4  5  1  0
  1  6  1  0
  5  6  2  0
  6  7  1  0
  5  8  1  0
  8  9  2  0
  4 10  1  0
  9 10  1  0
 11 10  1  6
 11 12  1  0
 12 13  1  1
 12 14  1  0
 14 15  1  1
 15 16  1  0
 16 17  2  0
 16 18  1  1
 16 19  1  0
 14 20  1  0
 11 21  1  0
 20 21  1  0
 20 22  1  6
 22 23  1  0
 23 24  1  0
 24 25  2  0
 24 26  1  6
 24 27  1  0
 27 28  1  0
 28 29  2  0
 28 30  1  6
 28 31  1  0
 31 33  1  0
 32 33  1  0
 32 34  1  1
 32 35  1  0
 32 36  1  0
 36 37  1  1
 36 38  1  0
 38 39  2  0
 38 40  1  0
 40 41  1  0
 41 42  1  0
 42 43  1  0
 43 44  2  0
 43 45  1  0
 45 46  1  0
 46 47  1  0
 47 48  1  0
 48 49  1  0
 49 50  2  0
 49 51  1  0
M  END
