7CNQ_G8X_A_602
     RDKit          3D

  9  9  0  0  0  0  0  0  0  0999 V2000
  -19.8331   30.6351   43.6714 O   0  0  0  0  0  0  0  0  0  0  0  0
  -18.3632   33.0295   41.4952 O   0  0  0  0  0  0  0  0  0  0  0  0
  -20.6823   33.3812   42.9526 N   0  0  0  0  0  0  0  0  0  0  0  0
  -19.8531   31.7914   44.5005 C   0  0  2  0  0  0  0  0  0  0  0  0
  -21.2738   32.1188   44.9200 C   0  0  0  0  0  0  0  0  0  0  0  0
  -21.7777   33.1469   43.9143 C   0  0  0  0  0  0  0  0  0  0  0  0
  -19.4347   32.9273   43.5992 C   0  0  1  0  0  0  0  0  0  0  0  0
  -18.4470   32.4298   42.5878 C   0  0  0  0  0  0  0  0  0  0  0  0
  -17.6908   31.4808   42.9029 O   0  0  0  0  0  0  0  0  0  0  0  0
  4  1  1  6
  4  5  1  0
  5  6  1  0
  3  6  1  0
  4  7  1  0
  3  7  1  0
  7  8  1  6
  2  8  1  0
  8  9  2  0
M  END
