8BOM_QU6_A_1001
     RDKit          3D

 58 62  0  0  0  0  0  0  0  0999 V2000
  -81.7829  -21.5061   87.2749 N   0  0  0  0  0  0  0  0  0  0  0  0
  -77.1075  -18.7800   82.3592 N   0  0  0  0  0  0  0  0  0  0  0  0
  -85.0424  -19.8255   86.5511 C   0  0  0  0  0  0  0  0  0  0  0  0
  -86.1321  -19.1438   87.2899 C   0  0  0  0  0  0  0  0  0  0  0  0
  -86.9214  -18.0197   89.4246 C   0  0  0  0  0  0  0  0  0  0  0  0
  -87.7888  -18.6486   90.3323 C   0  0  0  0  0  0  0  0  0  0  0  0
  -88.7351  -17.9097   91.0528 C   0  0  0  0  0  0  0  0  0  0  0  0
  -88.8220  -16.5194   90.8491 C   0  0  0  0  0  0  0  0  0  0  0  0
  -83.9480  -20.3823   87.2339 C   0  0  0  0  0  0  0  0  0  0  0  0
  -80.4298  -21.2729   86.8588 C   0  0  0  0  0  0  0  0  0  0  0  0
  -78.6249  -19.6817   83.9862 C   0  0  0  0  0  0  0  0  0  0  0  0
  -78.1392  -18.3648   81.5768 C   0  0  0  0  0  0  0  0  0  0  0  0
  -77.3160  -19.4245   83.5389 C   0  0  0  0  0  0  0  0  0  0  0  0
  -78.0848  -21.3818   87.2347 C   0  0  0  0  0  0  0  0  0  0  0  0
  -79.2126  -22.2416   88.8860 C   0  0  0  0  0  0  0  0  0  0  0  0
  -85.9813  -18.8152   88.6817 N   0  0  0  0  0  0  0  0  0  0  0  0
  -81.8838  -21.7878   84.3327 C   0  0  1  0  0  0  0  0  0  0  0  0
  -89.5675  -18.5923   91.9528 O   0  0  0  0  0  0  0  0  0  0  0  0
  -82.9660  -21.1068   85.1268 C   0  0  0  0  0  0  0  0  0  0  0  0
  -87.9781  -15.8905   89.9303 C   0  0  0  0  0  0  0  0  0  0  0  0
  -87.0362  -16.6342   89.2154 C   0  0  0  0  0  0  0  0  0  0  0  0
  -82.8991  -20.9941   86.5340 C   0  0  0  0  0  0  0  0  0  0  0  0
  -78.8687  -20.3756   85.2726 C   0  0  0  0  0  0  0  0  0  0  0  0
  -79.6983  -19.2583   83.1813 C   0  0  0  0  0  0  0  0  0  0  0  0
  -79.4550  -18.5975   81.9764 C   0  0  0  0  0  0  0  0  0  0  0  0
  -84.0605  -20.5509   84.4476 C   0  0  0  0  0  0  0  0  0  0  0  0
  -79.3488  -21.6443   87.6472 C   0  0  0  0  0  0  0  0  0  0  0  0
  -75.7630  -21.6113   88.1479 C   0  0  2  0  0  0  0  0  0  0  0  0
  -85.0898  -19.9221   85.1511 C   0  0  0  0  0  0  0  0  0  0  0  0
  -90.8194  -18.1021   92.4215 C   0  0  1  0  0  0  0  0  0  0  0  0
  -80.1548  -20.6388   85.6785 N   0  0  0  0  0  0  0  0  0  0  0  0
  -77.8161  -20.7493   86.0674 N   0  0  0  0  0  0  0  0  0  0  0  0
  -77.8885  -22.3125   89.1802 N   0  0  0  0  0  0  0  0  0  0  0  0
  -77.2072  -21.7995   88.1594 N   0  0  0  0  0  0  0  0  0  0  0  0
  -87.1790  -18.8018   86.6746 O   0  0  0  0  0  0  0  0  0  0  0  0
  -81.9603  -21.8633   88.2408 H   0  0  0  0  0  0  0  0  0  0  0  0
  -87.7240  -19.7197   90.4859 H   0  0  0  0  0  0  0  0  0  0  0  0
  -89.5428  -15.9196   91.3873 H   0  0  0  0  0  0  0  0  0  0  0  0
  -83.8961  -20.3393   88.3144 H   0  0  0  0  0  0  0  0  0  0  0  0
  -77.9371  -17.8545   80.6441 H   0  0  0  0  0  0  0  0  0  0  0  0
  -76.4586  -19.7325   84.1234 H   0  0  0  0  0  0  0  0  0  0  0  0
  -80.0055  -22.5832   89.5378 H   0  0  0  0  0  0  0  0  0  0  0  0
  -85.0770  -19.0575   89.1458 H   0  0  0  0  0  0  0  0  0  0  0  0
  -81.5847  -22.7478   84.8031 H   0  0  0  0  0  0  0  0  0  0  0  0
  -82.2397  -22.0195   83.3058 H   0  0  0  0  0  0  0  0  0  0  0  0
  -80.9990  -21.1213   84.2587 H   0  0  0  0  0  0  0  0  0  0  0  0
  -88.0593  -14.8231   89.7646 H   0  0  0  0  0  0  0  0  0  0  0  0
  -86.4189  -16.1305   88.4828 H   0  0  0  0  0  0  0  0  0  0  0  0
  -80.7245  -19.4326   83.4817 H   0  0  0  0  0  0  0  0  0  0  0  0
  -80.2795  -18.2665   81.3587 H   0  0  0  0  0  0  0  0  0  0  0  0
  -84.1205  -20.6081   83.3675 H   0  0  0  0  0  0  0  0  0  0  0  0
  -75.3786  -21.6612   87.1072 H   0  0  0  0  0  0  0  0  0  0  0  0
  -75.2731  -22.4069   88.7479 H   0  0  0  0  0  0  0  0  0  0  0  0
  -75.5147  -20.6219   88.5839 H   0  0  0  0  0  0  0  0  0  0  0  0
  -85.9185  -19.4997   84.5963 H   0  0  0  0  0  0  0  0  0  0  0  0
  -90.9628  -17.0486   92.0991 H   0  0  0  0  0  0  0  0  0  0  0  0
  -91.6348  -18.7193   91.9898 H   0  0  0  0  0  0  0  0  0  0  0  0
  -90.8673  -18.1745   93.5292 H   0  0  0  0  0  0  0  0  0  0  0  0
  3  4  1  0
  5  6  2  0
  6  7  1  0
  7  8  2  0
  3  9  2  0
  1 10  1  0
  2 12  2  0
 11 13  2  0
  2 13  1  0
  4 16  1  0
  5 16  1  0
  7 18  1  0
 17 19  1  0
  8 20  1  0
  5 21  1  0
 20 21  2  0
  1 22  1  0
 19 22  2  0
  9 22  1  0
 11 23  1  0
 11 24  1  0
 24 25  2  0
 12 25  1  0
 19 26  1  0
 15 27  1  0
 14 27  2  0
 10 27  1  0
 26 29  2  0
  3 29  1  0
 18 30  1  0
 10 31  2  0
 23 31  1  0
 14 32  1  0
 23 32  2  0
 15 33  2  0
 33 34  1  0
 28 34  1  0
 14 34  1  0
  4 35  2  0
  1 36  1  0
  6 37  1  0
  8 38  1  0
  9 39  1  0
 12 40  1  0
 13 41  1  0
 15 42  1  0
 16 43  1  0
 17 44  1  1
 17 45  1  0
 17 46  1  0
 20 47  1  0
 21 48  1  0
 24 49  1  0
 25 50  1  0
 26 51  1  0
 28 52  1  6
 28 53  1  0
 28 54  1  0
 29 55  1  0
 30 56  1  1
 30 57  1  0
 30 58  1  0
M  END
