1UML_FR4_A_1001
     RDKit          3D

 33 36  0  0  0  0  0  0  0  0999 V2000
   74.9872   48.4217   39.9961 C   0  0  0  0  0  0  0  0  0  0  0  0
   74.6671   47.1380   40.3567 N   0  0  0  0  0  0  0  0  0  0  0  0
   75.6737   46.7589   41.1343 C   0  0  0  0  0  0  0  0  0  0  0  0
   76.5957   47.7420   41.2706 N   0  0  0  0  0  0  0  0  0  0  0  0
   76.1736   48.7930   40.5585 C   0  0  0  0  0  0  0  0  0  0  0  0
   76.8456   50.0777   40.4119 C   0  0  0  0  0  0  0  0  0  0  0  0
   76.3120   50.9620   39.6837 O   0  0  0  0  0  0  0  0  0  0  0  0
   78.0768   50.3341   41.0735 N   0  0  0  0  0  0  0  0  0  0  0  0
   73.4654   46.5198   39.8911 C   0  0  1  0  0  0  0  0  0  0  0  0
   73.5693   44.9926   39.9167 C   0  0  0  0  0  0  0  0  0  0  0  0
   74.7387   44.6047   39.2674 O   0  0  0  0  0  0  0  0  0  0  0  0
   72.2608   46.8816   40.6746 C   0  0  0  0  0  0  0  0  0  0  0  0
   72.0345   48.3501   40.9186 C   0  0  0  0  0  0  0  0  0  0  0  0
   70.8536   48.4491   41.7479 N   0  0  0  0  0  0  0  0  0  0  0  0
   69.8684   47.6123   42.0301 C   0  0  0  0  0  0  0  0  0  0  0  0
   68.9431   48.1909   42.9049 C   0  0  0  0  0  0  0  0  0  0  0  0
   69.4211   49.4561   43.1519 C   0  0  0  0  0  0  0  0  0  0  0  0
   70.5888   49.6040   42.4403 C   0  0  0  0  0  0  0  0  0  0  0  0
   68.8979   50.4501   43.9445 C   0  0  0  0  0  0  0  0  0  0  0  0
   69.6090   51.6554   44.0095 C   0  0  0  0  0  0  0  0  0  0  0  0
   70.7785   51.8602   43.3222 C   0  0  0  0  0  0  0  0  0  0  0  0
   71.2392   50.8151   42.5485 C   0  0  0  0  0  0  0  0  0  0  0  0
   71.5424   53.0454   43.3431 N   0  0  0  0  0  0  0  0  0  0  0  0
   72.6257   53.3517   42.4889 C   0  0  0  0  0  0  0  0  0  0  0  0
   73.0357   52.5620   41.6129 O   0  0  0  0  0  0  0  0  0  0  0  0
   73.3397   54.6587   42.6003 C   0  0  0  0  0  0  0  0  0  0  0  0
   74.5754   54.6848   41.7549 C   0  0  0  0  0  0  0  0  0  0  0  0
   76.3584   56.3498   41.1273 C   0  0  0  0  0  0  0  0  0  0  0  0
   75.2215   56.0036   41.8330 C   0  0  0  0  0  0  0  0  0  0  0  0
   74.6418   56.9552   42.6746 C   0  0  0  0  0  0  0  0  0  0  0  0
   75.1654   58.2143   42.8192 C   0  0  0  0  0  0  0  0  0  0  0  0
   76.3056   58.5675   42.1140 C   0  0  0  0  0  0  0  0  0  0  0  0
   76.8647   57.6172   41.2884 C   0  0  0  0  0  0  0  0  0  0  0  0
  1  2  1  0
  2  3  1  0
  3  4  2  0
  1  5  2  0
  4  5  1  0
  5  6  1  0
  6  7  2  0
  6  8  1  0
  2  9  1  0
  9 10  1  1
 10 11  1  0
  9 12  1  0
 12 13  1  0
 13 14  1  0
 14 15  1  0
 15 16  2  0
 16 17  1  0
 14 18  1  0
 17 18  2  0
 17 19  1  0
 19 20  2  0
 20 21  1  0
 18 22  1  0
 21 22  2  0
 21 23  1  0
 23 24  1  0
 24 25  2  0
 24 26  1  0
 26 27  1  0
 27 29  1  0
 28 29  2  0
 29 30  1  0
 30 31  2  0
 31 32  1  0
 28 33  1  0
 32 33  2  0
M  END
$$$$
