1UML_FR4_A_1001
     RDKit          3D

 33 36  0  0  0  0  0  0  0  0999 V2000
   52.4217   52.1854   17.5597 C   0  0  0  0  0  0  0  0  0  0  0  0
   52.9037   51.1127   16.8542 N   0  0  0  0  0  0  0  0  0  0  0  0
   53.5604   50.3978   17.7594 C   0  0  0  0  0  0  0  0  0  0  0  0
   53.5075   50.9746   18.9840 N   0  0  0  0  0  0  0  0  0  0  0  0
   52.7933   52.1001   18.8698 C   0  0  0  0  0  0  0  0  0  0  0  0
   52.4753   53.0464   19.9313 C   0  0  0  0  0  0  0  0  0  0  0  0
   51.7242   54.0272   19.6650 O   0  0  0  0  0  0  0  0  0  0  0  0
   52.9978   52.8724   21.2413 N   0  0  0  0  0  0  0  0  0  0  0  0
   52.6466   50.9756   15.4549 C   0  0  1  0  0  0  0  0  0  0  0  0
   53.8475   50.3791   14.7159 C   0  0  0  0  0  0  0  0  0  0  0  0
   54.9050   51.2843   14.7600 O   0  0  0  0  0  0  0  0  0  0  0  0
   51.4793   50.1192   15.1393 C   0  0  0  0  0  0  0  0  0  0  0  0
   50.2021   50.4271   15.8749 C   0  0  0  0  0  0  0  0  0  0  0  0
   49.2226   49.4693   15.4111 N   0  0  0  0  0  0  0  0  0  0  0  0
   48.2915   49.5038   14.4717 C   0  0  0  0  0  0  0  0  0  0  0  0
   47.5864   48.2975   14.4085 C   0  0  0  0  0  0  0  0  0  0  0  0
   48.1447   47.5008   15.3799 C   0  0  0  0  0  0  0  0  0  0  0  0
   49.1435   48.2260   15.9868 C   0  0  0  0  0  0  0  0  0  0  0  0
   47.8289   46.2135   15.7445 C   0  0  0  0  0  0  0  0  0  0  0  0
   48.5756   45.6428   16.7834 C   0  0  0  0  0  0  0  0  0  0  0  0
   49.5829   46.3175   17.4252 C   0  0  0  0  0  0  0  0  0  0  0  0
   49.8400   47.6052   17.0023 C   0  0  0  0  0  0  0  0  0  0  0  0
   50.3714   45.8039   18.4755 N   0  0  0  0  0  0  0  0  0  0  0  0
   51.1584   46.5617   19.3718 C   0  0  0  0  0  0  0  0  0  0  0  0
   51.2855   47.7999   19.2738 O   0  0  0  0  0  0  0  0  0  0  0  0
   51.8855   45.9001   20.4961 C   0  0  0  0  0  0  0  0  0  0  0  0
   52.7362   46.8745   21.2506 C   0  0  0  0  0  0  0  0  0  0  0  0
   54.4819   46.2181   19.5575 C   0  0  0  0  0  0  0  0  0  0  0  0
   54.0586   46.9960   20.6187 C   0  0  0  0  0  0  0  0  0  0  0  0
   54.9304   47.9591   21.1307 C   0  0  0  0  0  0  0  0  0  0  0  0
   56.1855   48.1531   20.6136 C   0  0  0  0  0  0  0  0  0  0  0  0
   56.6159   47.3760   19.5492 C   0  0  0  0  0  0  0  0  0  0  0  0
   55.7437   46.4307   19.0562 C   0  0  0  0  0  0  0  0  0  0  0  0
  1  2  1  0
  2  3  1  0
  3  4  2  0
  1  5  2  0
  4  5  1  0
  5  6  1  0
  6  7  2  0
  6  8  1  0
  2  9  1  0
  9 10  1  6
 10 11  1  0
  9 12  1  0
 12 13  1  0
 13 14  1  0
 14 15  1  0
 15 16  2  0
 16 17  1  0
 14 18  1  0
 17 18  2  0
 17 19  1  0
 19 20  2  0
 20 21  1  0
 18 22  1  0
 21 22  2  0
 21 23  1  0
 23 24  1  0
 24 25  2  0
 24 26  1  0
 26 27  1  0
 27 29  1  0
 28 29  2  0
 29 30  1  0
 30 31  2  0
 31 32  1  0
 28 33  1  0
 32 33  2  0
M  END
$$$$
