1UML_FR4_A_1001
     RDKit          3D

 33 36  0  0  0  0  0  0  0  0999 V2000
   55.0824   52.8750   20.4669 C   0  0  0  0  0  0  0  0  0  0  0  0
   54.8377   54.2233   20.5175 N   0  0  0  0  0  0  0  0  0  0  0  0
   55.2794   54.5884   21.7147 C   0  0  0  0  0  0  0  0  0  0  0  0
   55.7828   53.5355   22.4025 N   0  0  0  0  0  0  0  0  0  0  0  0
   55.6638   52.4521   21.6266 C   0  0  0  0  0  0  0  0  0  0  0  0
   56.0728   51.0923   21.9534 C   0  0  0  0  0  0  0  0  0  0  0  0
   56.1053   50.2299   21.0302 O   0  0  0  0  0  0  0  0  0  0  0  0
   56.4289   50.7396   23.2832 N   0  0  0  0  0  0  0  0  0  0  0  0
   54.2301   54.9037   19.4171 C   0  0  1  0  0  0  0  0  0  0  0  0
   55.0194   54.6990   18.1213 C   0  0  0  0  0  0  0  0  0  0  0  0
   56.3641   54.9725   18.3590 O   0  0  0  0  0  0  0  0  0  0  0  0
   52.8371   54.4794   19.1431 C   0  0  0  0  0  0  0  0  0  0  0  0
   51.8974   54.4601   20.3195 C   0  0  0  0  0  0  0  0  0  0  0  0
   50.6324   53.9641   19.8237 N   0  0  0  0  0  0  0  0  0  0  0  0
   49.5684   54.5508   19.2998 C   0  0  0  0  0  0  0  0  0  0  0  0
   48.5818   53.6160   18.9699 C   0  0  0  0  0  0  0  0  0  0  0  0
   49.1058   52.3959   19.3259 C   0  0  0  0  0  0  0  0  0  0  0  0
   50.3591   52.6195   19.8466 C   0  0  0  0  0  0  0  0  0  0  0  0
   48.5541   51.1413   19.2185 C   0  0  0  0  0  0  0  0  0  0  0  0
   49.3276   50.0632   19.6679 C   0  0  0  0  0  0  0  0  0  0  0  0
   50.5833   50.2253   20.1960 C   0  0  0  0  0  0  0  0  0  0  0  0
   51.0675   51.5149   20.2705 C   0  0  0  0  0  0  0  0  0  0  0  0
   51.4132   49.1864   20.6658 N   0  0  0  0  0  0  0  0  0  0  0  0
   52.8059   49.2715   20.8896 C   0  0  0  0  0  0  0  0  0  0  0  0
   53.4707   50.2914   20.6126 O   0  0  0  0  0  0  0  0  0  0  0  0
   53.5558   48.1220   21.4786 C   0  0  0  0  0  0  0  0  0  0  0  0
   55.0085   48.4426   21.6505 C   0  0  0  0  0  0  0  0  0  0  0  0
   56.9804   47.3692   22.7926 C   0  0  0  0  0  0  0  0  0  0  0  0
   55.7218   47.2927   22.2265 C   0  0  0  0  0  0  0  0  0  0  0  0
   55.0782   46.0540   22.1935 C   0  0  0  0  0  0  0  0  0  0  0  0
   55.6560   44.9197   22.7034 C   0  0  0  0  0  0  0  0  0  0  0  0
   56.9183   44.9901   23.2726 C   0  0  0  0  0  0  0  0  0  0  0  0
   57.5391   46.2194   23.2970 C   0  0  0  0  0  0  0  0  0  0  0  0
  1  2  1  0
  2  3  1  0
  3  4  2  0
  1  5  2  0
  4  5  1  0
  5  6  1  0
  6  7  2  0
  6  8  1  0
  2  9  1  0
  9 10  1  6
 10 11  1  0
  9 12  1  0
 12 13  1  0
 13 14  1  0
 14 15  1  0
 15 16  2  0
 16 17  1  0
 14 18  1  0
 17 18  2  0
 17 19  1  0
 19 20  2  0
 20 21  1  0
 18 22  1  0
 21 22  2  0
 21 23  1  0
 23 24  1  0
 24 25  2  0
 24 26  1  0
 26 27  1  0
 27 29  1  0
 28 29  2  0
 29 30  1  0
 30 31  2  0
 31 32  1  0
 28 33  1  0
 32 33  2  0
M  END
$$$$
