1UML_FR4_A_1001
     RDKit          3D

 33 36  0  0  0  0  0  0  0  0999 V2000
   43.2569   66.2892   15.8285 C   0  0  0  0  0  0  0  0  0  0  0  0
   43.5978   65.4385   14.8084 N   0  0  0  0  0  0  0  0  0  0  0  0
   43.5049   66.1876   13.7167 C   0  0  0  0  0  0  0  0  0  0  0  0
   43.1249   67.4539   14.0120 N   0  0  0  0  0  0  0  0  0  0  0  0
   42.9661   67.5289   15.3383 C   0  0  0  0  0  0  0  0  0  0  0  0
   42.5632   68.6996   16.1068 C   0  0  0  0  0  0  0  0  0  0  0  0
   42.5193   68.6128   17.3667 O   0  0  0  0  0  0  0  0  0  0  0  0
   42.2257   69.9165   15.4551 N   0  0  0  0  0  0  0  0  0  0  0  0
   43.9454   64.0769   15.0696 C   0  0  1  0  0  0  0  0  0  0  0  0
   45.3944   63.9455   15.5463 C   0  0  0  0  0  0  0  0  0  0  0  0
   46.2469   64.0690   14.4519 O   0  0  0  0  0  0  0  0  0  0  0  0
   43.0955   63.4254   16.0937 C   0  0  0  0  0  0  0  0  0  0  0  0
   43.6297   62.1551   16.7004 C   0  0  0  0  0  0  0  0  0  0  0  0
   42.6707   61.7467   17.7033 N   0  0  0  0  0  0  0  0  0  0  0  0
   41.3671   61.9265   17.8408 C   0  0  0  0  0  0  0  0  0  0  0  0
   40.8896   61.3212   19.0077 C   0  0  0  0  0  0  0  0  0  0  0  0
   41.9921   60.7465   19.5945 C   0  0  0  0  0  0  0  0  0  0  0  0
   43.0753   61.0122   18.7896 C   0  0  0  0  0  0  0  0  0  0  0  0
   42.0870   60.0260   20.7614 C   0  0  0  0  0  0  0  0  0  0  0  0
   43.3569   59.5551   21.1194 C   0  0  0  0  0  0  0  0  0  0  0  0
   44.4728   59.7890   20.3565 C   0  0  0  0  0  0  0  0  0  0  0  0
   44.2963   60.5198   19.1998 C   0  0  0  0  0  0  0  0  0  0  0  0
   45.7770   59.3452   20.6577 N   0  0  0  0  0  0  0  0  0  0  0  0
   46.8511   59.2402   19.7454 C   0  0  0  0  0  0  0  0  0  0  0  0
   46.7578   59.5970   18.5526 O   0  0  0  0  0  0  0  0  0  0  0  0
   48.1691   58.6871   20.1786 C   0  0  0  0  0  0  0  0  0  0  0  0
   49.1035   58.5201   19.0204 C   0  0  0  0  0  0  0  0  0  0  0  0
   51.3256   57.4204   18.5755 C   0  0  0  0  0  0  0  0  0  0  0  0
   50.3105   57.7907   19.4374 C   0  0  0  0  0  0  0  0  0  0  0  0
   50.4264   57.4576   20.7885 C   0  0  0  0  0  0  0  0  0  0  0  0
   51.5114   56.7785   21.2802 C   0  0  0  0  0  0  0  0  0  0  0  0
   52.5329   56.4044   20.4207 C   0  0  0  0  0  0  0  0  0  0  0  0
   52.4028   56.7406   19.0913 C   0  0  0  0  0  0  0  0  0  0  0  0
  1  2  1  0
  2  3  1  0
  3  4  2  0
  1  5  2  0
  4  5  1  0
  5  6  1  0
  6  7  2  0
  6  8  1  0
  2  9  1  0
  9 10  1  1
 10 11  1  0
  9 12  1  0
 12 13  1  0
 13 14  1  0
 14 15  1  0
 15 16  2  0
 16 17  1  0
 14 18  1  0
 17 18  2  0
 17 19  1  0
 19 20  2  0
 20 21  1  0
 18 22  1  0
 21 22  2  0
 21 23  1  0
 23 24  1  0
 24 25  2  0
 24 26  1  0
 26 27  1  0
 27 29  1  0
 28 29  2  0
 29 30  1  0
 30 31  2  0
 31 32  1  0
 28 33  1  0
 32 33  2  0
M  END
$$$$
