1JLA_TNK_A_999
     RDKit          3D

 27 29  0  0  0  0  0  0  0  0999 V2000
   15.3974  -22.5712   31.0177 C   0  0  0  0  0  0  0  0  0  0  0  0
   16.6536  -23.1760   31.1870 C   0  0  0  0  0  0  0  0  0  0  0  0
   16.7393  -24.4958   31.7017 C   0  0  0  0  0  0  0  0  0  0  0  0
   15.5545  -25.2053   32.0423 C   0  0  0  0  0  0  0  0  0  0  0  0
   14.2956  -24.5966   31.8661 C   0  0  0  0  0  0  0  0  0  0  0  0
   14.2232  -23.2801   31.3513 C   0  0  0  0  0  0  0  0  0  0  0  0
   14.4084  -20.6836   29.4213 C   0  0  0  0  0  0  0  0  0  0  0  0
   15.0181  -20.3979   28.1761 N   0  0  0  0  0  0  0  0  0  0  0  0
   14.2592  -19.9542   27.0677 C   0  0  0  0  0  0  0  0  0  0  0  0
   14.7488  -19.6584   25.9796 O   0  0  0  0  0  0  0  0  0  0  0  0
   12.8981  -19.8267   27.2753 N   0  0  0  0  0  0  0  0  0  0  0  0
   12.2084  -20.0829   28.4569 C   0  0  0  0  0  0  0  0  0  0  0  0
   10.9887  -19.9319   28.4963 O   0  0  0  0  0  0  0  0  0  0  0  0
   13.0086  -20.5248   29.5822 C   0  0  0  0  0  0  0  0  0  0  0  0
   15.3355  -21.1185   30.5711 C   0  0  0  0  0  0  0  0  0  0  0  0
   12.2099  -20.6694   30.8935 C   0  0  2  0  0  0  0  0  0  0  0  0
   12.1037  -19.3821   31.7333 C   0  0  0  0  0  0  0  0  0  0  0  0
   12.5023  -21.9386   31.6659 C   0  0  0  0  0  0  0  0  0  0  0  0
   16.4976  -20.4772   27.9795 C   0  0  0  0  0  0  0  0  0  0  0  0
   16.9486  -19.3908   27.1896 O   0  0  0  0  0  0  0  0  0  0  0  0
   18.2482  -18.9641   27.5637 C   0  0  0  0  0  0  0  0  0  0  0  0
   18.5471  -17.6106   26.9980 C   0  0  0  0  0  0  0  0  0  0  0  0
   17.5136  -16.8308   26.4438 C   0  0  0  0  0  0  0  0  0  0  0  0
   17.7681  -15.5136   26.0172 C   0  0  0  0  0  0  0  0  0  0  0  0
   19.0689  -14.9778   26.1478 C   0  0  0  0  0  0  0  0  0  0  0  0
   20.1048  -15.7689   26.7010 C   0  0  0  0  0  0  0  0  0  0  0  0
   19.8363  -17.0866   27.1229 C   0  0  0  0  0  0  0  0  0  0  0  0
  1  2  2  0
  2  3  1  0
  3  4  2  0
  4  5  1  0
  1  6  1  0
  5  6  2  0
  7  8  1  0
  8  9  1  0
  9 10  2  0
  9 11  1  0
 11 12  1  0
 12 13  2  0
  7 14  2  0
 12 14  1  0
  1 15  1  0
  7 15  1  0
 14 16  1  0
 16 17  1  1
 16 18  1  0
  8 19  1  0
 19 20  1  0
 20 21  1  0
 21 22  1  0
 22 23  2  0
 23 24  1  0
 24 25  2  0
 25 26  1  0
 22 27  1  0
 26 27  2  0
M  END
