1JLA_TNK_A_999
     RDKit          3D

 51 53  0  0  0  0  0  0  0  0999 V2000
   -2.3748  -35.7669   26.5273 C   0  0  0  0  0  0  0  0  0  0  0  0
   -2.4579  -35.4773   27.9004 C   0  0  0  0  0  0  0  0  0  0  0  0
   -2.1431  -36.4499   28.8536 C   0  0  0  0  0  0  0  0  0  0  0  0
   -1.7479  -37.7258   28.4478 C   0  0  0  0  0  0  0  0  0  0  0  0
   -1.6690  -38.0321   27.0879 C   0  0  0  0  0  0  0  0  0  0  0  0
   -1.9827  -37.0635   26.1299 C   0  0  0  0  0  0  0  0  0  0  0  0
   -2.3708  -34.9681   24.0889 C   0  0  0  0  0  0  0  0  0  0  0  0
   -3.1398  -35.8551   23.3485 N   0  0  0  0  0  0  0  0  0  0  0  0
   -2.8600  -36.0677   22.0229 C   0  0  0  0  0  0  0  0  0  0  0  0
   -3.5597  -36.8659   21.3378 O   0  0  0  0  0  0  0  0  0  0  0  0
   -1.8338  -35.4257   21.4221 N   0  0  0  0  0  0  0  0  0  0  0  0
   -1.0253  -34.5840   22.1028 C   0  0  0  0  0  0  0  0  0  0  0  0
   -0.0886  -34.0128   21.4790 O   0  0  0  0  0  0  0  0  0  0  0  0
   -1.2288  -34.3474   23.4797 C   0  0  0  0  0  0  0  0  0  0  0  0
   -2.7411  -34.6746   25.5400 C   0  0  1  0  0  0  0  0  0  0  0  0
   -0.2383  -33.4034   24.1944 C   0  0  1  0  0  0  0  0  0  0  0  0
   -0.3113  -31.9686   23.6546 C   0  0  1  0  0  0  0  0  0  0  0  0
   -0.2587  -33.4674   25.7312 C   0  0  1  0  0  0  0  0  0  0  0  0
   -4.2727  -36.6215   23.9267 C   0  0  1  0  0  0  0  0  0  0  0  0
   -5.5026  -35.9660   23.6824 O   0  0  0  0  0  0  0  0  0  0  0  0
   -5.3773  -34.5812   23.9210 C   0  0  2  0  0  0  0  0  0  0  0  0
   -6.6087  -33.8914   23.4112 C   0  0  0  0  0  0  0  0  0  0  0  0
   -6.7259  -32.4936   23.4907 C   0  0  0  0  0  0  0  0  0  0  0  0
   -7.8912  -31.8589   23.0491 C   0  0  0  0  0  0  0  0  0  0  0  0
   -8.9502  -32.6146   22.5380 C   0  0  0  0  0  0  0  0  0  0  0  0
   -8.8476  -34.0070   22.4724 C   0  0  0  0  0  0  0  0  0  0  0  0
   -7.6841  -34.6456   22.9128 C   0  0  0  0  0  0  0  0  0  0  0  0
   -2.7654  -34.4934   28.2330 H   0  0  0  0  0  0  0  0  0  0  0  0
   -2.2070  -36.2140   29.9080 H   0  0  0  0  0  0  0  0  0  0  0  0
   -1.5046  -38.4780   29.1871 H   0  0  0  0  0  0  0  0  0  0  0  0
   -1.3646  -39.0225   26.7749 H   0  0  0  0  0  0  0  0  0  0  0  0
   -1.9097  -37.3351   25.0860 H   0  0  0  0  0  0  0  0  0  0  0  0
   -1.6547  -35.5929   20.4049 H   0  0  0  0  0  0  0  0  0  0  0  0
   -3.8233  -34.4607   25.6256 H   0  0  0  0  0  0  0  0  0  0  0  0
   -2.3102  -33.7213   25.8759 H   0  0  0  0  0  0  0  0  0  0  0  0
    0.7936  -33.7406   23.9548 H   0  0  0  0  0  0  0  0  0  0  0  0
   -0.3287  -31.2468   24.4991 H   0  0  0  0  0  0  0  0  0  0  0  0
    0.5881  -31.7540   23.0387 H   0  0  0  0  0  0  0  0  0  0  0  0
   -1.2059  -31.7916   23.0295 H   0  0  0  0  0  0  0  0  0  0  0  0
   -1.1288  -34.0243   26.1271 H   0  0  0  0  0  0  0  0  0  0  0  0
    0.6850  -33.9087   26.1147 H   0  0  0  0  0  0  0  0  0  0  0  0
   -0.3393  -32.4392   26.1459 H   0  0  0  0  0  0  0  0  0  0  0  0
   -4.3160  -37.6125   23.4254 H   0  0  0  0  0  0  0  0  0  0  0  0
   -4.1549  -36.8939   24.9942 H   0  0  0  0  0  0  0  0  0  0  0  0
   -4.4917  -34.1619   23.3916 H   0  0  0  0  0  0  0  0  0  0  0  0
   -5.2653  -34.3788   25.0107 H   0  0  0  0  0  0  0  0  0  0  0  0
   -5.9172  -31.8968   23.8941 H   0  0  0  0  0  0  0  0  0  0  0  0
   -7.9750  -30.7814   23.1068 H   0  0  0  0  0  0  0  0  0  0  0  0
   -9.8518  -32.1219   22.1980 H   0  0  0  0  0  0  0  0  0  0  0  0
   -9.6714  -34.5919   22.0840 H   0  0  0  0  0  0  0  0  0  0  0  0
   -7.6212  -35.7260   22.8667 H   0  0  0  0  0  0  0  0  0  0  0  0
  1  2  2  0
  2  3  1  0
  3  4  2  0
  4  5  1  0
  1  6  1  0
  5  6  2  0
  7  8  1  0
  8  9  1  0
  9 10  2  0
  9 11  1  0
 11 12  1  0
 12 13  2  0
  7 14  2  0
 12 14  1  0
  1 15  1  0
  7 15  1  0
 14 16  1  0
 16 17  1  0
 16 18  1  0
  8 19  1  0
 19 20  1  0
 20 21  1  0
 21 22  1  0
 22 23  2  0
 23 24  1  0
 24 25  2  0
 25 26  1  0
 22 27  1  0
 26 27  2  0
  2 28  1  0
  3 29  1  0
  4 30  1  0
  5 31  1  0
  6 32  1  0
 11 33  1  0
 15 34  1  6
 15 35  1  0
 16 36  1  6
 17 37  1  1
 17 38  1  0
 17 39  1  0
 18 40  1  6
 18 41  1  0
 18 42  1  0
 19 43  1  6
 19 44  1  0
 21 45  1  6
 21 46  1  0
 23 47  1  0
 24 48  1  0
 25 49  1  0
 26 50  1  0
 27 51  1  0
M  END
