7QK0_EBL_A_201
     RDKit          3D

 67 72  0  0  0  0  0  0  0  0999 V2000
   -5.1921    3.1869    1.4836 C   0  0  0  0  0  0  0  0  0  0  0  0
   -4.0042    2.3933   -0.6452 C   0  0  2  0  0  0  0  0  0  0  0  0
   -4.9846    2.2747   -1.8328 C   0  0  0  0  0  0  0  0  0  0  0  0
   -4.6310    3.0736   -3.0790 C   0  0  0  0  0  0  0  0  0  0  0  0
   -4.4228    1.5672   -3.0578 C   0  0  0  0  0  0  0  0  0  0  0  0
   -3.2048    0.9074    1.2617 C   0  0  0  0  0  0  0  0  0  0  0  0
    5.1414   -3.6892   -1.1676 C   0  0  0  0  0  0  0  0  0  0  0  0
    6.1416   -3.0998   -0.1608 C   0  0  1  0  0  0  0  0  0  0  0  0
    6.4832   -1.6293   -0.4918 C   0  0  0  0  0  0  0  0  0  0  0  0
    5.3707   -0.8832   -1.2707 C   0  0  1  0  0  0  0  0  0  0  0  0
   -3.4087    1.6563    2.4344 C   0  0  0  0  0  0  0  0  0  0  0  0
   -2.6559    1.3626    3.5764 C   0  0  0  0  0  0  0  0  0  0  0  0
   -2.8542    2.0549    4.6143 O   0  0  0  0  0  0  0  0  0  0  0  0
   -4.3516    2.6974    2.5297 O   0  0  0  0  0  0  0  0  0  0  0  0
   -4.0230    1.1323    0.1068 N   0  0  0  0  0  0  0  0  0  0  0  0
   -4.3622    3.6045    0.2599 C   0  0  0  0  0  0  0  0  0  0  0  0
   -3.1909    4.2063    0.6966 F   0  0  0  0  0  0  0  0  0  0  0  0
   -5.0719    4.5591   -0.4549 F   0  0  0  0  0  0  0  0  0  0  0  0
   -1.7275    0.3482    3.5798 N   0  0  0  0  0  0  0  0  0  0  0  0
   -0.9775    0.0562    4.8192 C   0  0  0  0  0  0  0  0  0  0  0  0
   -1.5046   -0.3943    2.4361 C   0  0  0  0  0  0  0  0  0  0  0  0
   -0.5437   -1.4334    2.3996 C   0  0  0  0  0  0  0  0  0  0  0  0
   -0.3424   -2.1893    1.2456 C   0  0  0  0  0  0  0  0  0  0  0  0
   -1.0820   -1.9291    0.0858 C   0  0  0  0  0  0  0  0  0  0  0  0
   -2.0332   -0.9045    0.1000 C   0  0  0  0  0  0  0  0  0  0  0  0
   -2.2544   -0.1305    1.2592 C   0  0  0  0  0  0  0  0  0  0  0  0
   -0.9357   -2.7421   -1.0924 N   0  0  0  0  0  0  0  0  0  0  0  0
    0.2694   -3.4488   -1.4220 C   0  0  0  0  0  0  0  0  0  0  0  0
    0.2176   -4.7135   -2.0252 C   0  0  0  0  0  0  0  0  0  0  0  0
   -1.3062   -5.5234   -2.3533 Cl  0  0  0  0  0  0  0  0  0  0  0  0
    1.4195   -5.3549   -2.3262 C   0  0  0  0  0  0  0  0  0  0  0  0
    2.6009   -4.7480   -2.0518 N   0  0  0  0  0  0  0  0  0  0  0  0
    2.6430   -3.5128   -1.4831 C   0  0  0  0  0  0  0  0  0  0  0  0
    1.4786   -2.8782   -1.1744 N   0  0  0  0  0  0  0  0  0  0  0  0
    3.9087   -2.8842   -1.2017 N   0  0  0  0  0  0  0  0  0  0  0  0
    3.9688   -1.4345   -0.9492 C   0  0  0  0  0  0  0  0  0  0  0  0
    5.4375    0.6272   -1.0129 C   0  0  0  0  0  0  0  0  0  0  0  0
    5.6016   -3.1698    1.1365 O   0  0  0  0  0  0  0  0  0  0  0  0
   -5.9606    2.4280    1.2179 H   0  0  0  0  0  0  0  0  0  0  0  0
   -5.7335    4.0749    1.8740 H   0  0  0  0  0  0  0  0  0  0  0  0
   -2.9690    2.5479   -1.0309 H   0  0  0  0  0  0  0  0  0  0  0  0
   -6.0698    2.1084   -1.6508 H   0  0  0  0  0  0  0  0  0  0  0  0
   -3.6879    3.6629   -3.0348 H   0  0  0  0  0  0  0  0  0  0  0  0
   -5.5057    3.3991   -3.6794 H   0  0  0  0  0  0  0  0  0  0  0  0
   -5.1764    0.9989   -3.6468 H   0  0  0  0  0  0  0  0  0  0  0  0
   -3.3543    1.2605   -3.0092 H   0  0  0  0  0  0  0  0  0  0  0  0
    4.9139   -4.7359   -0.8642 H   0  0  0  0  0  0  0  0  0  0  0  0
    5.5950   -3.7160   -2.1826 H   0  0  0  0  0  0  0  0  0  0  0  0
    7.0844   -3.6952   -0.1995 H   0  0  0  0  0  0  0  0  0  0  0  0
    7.4118   -1.6031   -1.1055 H   0  0  0  0  0  0  0  0  0  0  0  0
    6.7200   -1.0966    0.4556 H   0  0  0  0  0  0  0  0  0  0  0  0
    5.5490   -1.0421   -2.3588 H   0  0  0  0  0  0  0  0  0  0  0  0
   -4.6045    0.3335   -0.2354 H   0  0  0  0  0  0  0  0  0  0  0  0
   -1.2867    0.6890    5.6758 H   0  0  0  0  0  0  0  0  0  0  0  0
   -1.1482   -0.9976    5.1281 H   0  0  0  0  0  0  0  0  0  0  0  0
    0.1072    0.2303    4.6553 H   0  0  0  0  0  0  0  0  0  0  0  0
    0.0605   -1.6832    3.2597 H   0  0  0  0  0  0  0  0  0  0  0  0
    0.3767   -2.9971    1.2723 H   0  0  0  0  0  0  0  0  0  0  0  0
   -2.5908   -0.7157   -0.8084 H   0  0  0  0  0  0  0  0  0  0  0  0
   -1.7461   -2.8112   -1.7501 H   0  0  0  0  0  0  0  0  0  0  0  0
    1.4165   -6.3401   -2.7730 H   0  0  0  0  0  0  0  0  0  0  0  0
    3.2294   -0.9109   -1.5977 H   0  0  0  0  0  0  0  0  0  0  0  0
    3.7083   -1.2366    0.1141 H   0  0  0  0  0  0  0  0  0  0  0  0
    6.4442    1.0152   -1.2809 H   0  0  0  0  0  0  0  0  0  0  0  0
    5.2368    0.8483    0.0566 H   0  0  0  0  0  0  0  0  0  0  0  0
    4.6841    1.1561   -1.6330 H   0  0  0  0  0  0  0  0  0  0  0  0
    5.6626   -4.1183    1.4236 H   0  0  0  0  0  0  0  0  0  0  0  0
  2  3  1  0
  3  4  1  0
  4  5  1  0
  3  5  1  0
  7  8  1  0
  8  9  1  0
  9 10  1  0
  6 11  2  0
 11 12  1  0
 12 13  2  0
 11 14  1  0
  1 14  1  0
  6 15  1  0
  2 15  1  0
  2 16  1  0
  1 16  1  0
 16 17  1  0
 16 18  1  0
 12 19  1  0
 19 20  1  0
 19 21  1  0
 21 22  2  0
 22 23  1  0
 23 24  2  0
 24 25  1  0
 25 26  2  0
 21 26  1  0
  6 26  1  0
 24 27  1  0
 27 28  1  0
 28 29  2  0
 29 30  1  0
 29 31  1  0
 31 32  2  0
 32 33  1  0
 33 34  2  0
 28 34  1  0
 33 35  1  0
  7 35  1  0
 10 36  1  0
 35 36  1  0
 10 37  1  0
  8 38  1  0
  1 39  1  0
  1 40  1  0
  2 41  1  6
  3 42  1  0
  4 43  1  0
  4 44  1  0
  5 45  1  0
  5 46  1  0
  7 47  1  0
  7 48  1  0
  8 49  1  1
  9 50  1  0
  9 51  1  0
 10 52  1  6
 15 53  1  0
 20 54  1  0
 20 55  1  0
 20 56  1  0
 22 57  1  0
 23 58  1  0
 25 59  1  0
 27 60  1  0
 31 61  1  0
 36 62  1  0
 36 63  1  0
 37 64  1  0
 37 65  1  0
 37 66  1  0
 38 67  1  0
M  END
