7MZS_GLA_A_301
     RDKit          3D

 24 24  0  0  0  0  0  0  0  0999 V2000
  -14.8839  -14.9346   14.3341 C   0  0  1  0  0  0  0  0  0  0  0  0
  -14.7175  -15.1574   15.8438 C   0  0  1  0  0  0  0  0  0  0  0  0
  -15.8951  -14.5240   16.5981 C   0  0  2  0  0  0  0  0  0  0  0  0
  -17.2342  -14.9965   15.9953 C   0  0  2  0  0  0  0  0  0  0  0  0
  -17.2484  -14.9903   14.4368 C   0  0  1  0  0  0  0  0  0  0  0  0
  -17.6777  -13.6675   13.7610 C   0  0  2  0  0  0  0  0  0  0  0  0
  -13.7874  -15.5066   13.6738 O   0  0  0  0  0  0  0  0  0  0  0  0
  -14.6546  -16.5365   16.1089 O   0  0  0  0  0  0  0  0  0  0  0  0
  -15.7795  -13.1243   16.5562 O   0  0  0  0  0  0  0  0  0  0  0  0
  -18.2942  -14.2356   16.5165 O   0  0  0  0  0  0  0  0  0  0  0  0
  -16.0728  -15.5433   13.8582 O   0  0  0  0  0  0  0  0  0  0  0  0
  -16.7072  -13.1852   12.8767 O   0  0  0  0  0  0  0  0  0  0  0  0
  -14.8776  -13.8436   14.1174 H   0  0  0  0  0  0  0  0  0  0  0  0
  -13.7685  -14.6699   16.1707 H   0  0  0  0  0  0  0  0  0  0  0  0
  -15.8446  -14.8599   17.6616 H   0  0  0  0  0  0  0  0  0  0  0  0
  -17.3637  -16.0565   16.3214 H   0  0  0  0  0  0  0  0  0  0  0  0
  -18.0607  -15.6998   14.1631 H   0  0  0  0  0  0  0  0  0  0  0  0
  -17.8669  -12.9017   14.5469 H   0  0  0  0  0  0  0  0  0  0  0  0
  -18.6323  -13.8352   13.2134 H   0  0  0  0  0  0  0  0  0  0  0  0
  -14.1459  -15.9391   12.8550 H   0  0  0  0  0  0  0  0  0  0  0  0
  -15.5304  -16.9203   15.8419 H   0  0  0  0  0  0  0  0  0  0  0  0
  -16.3441  -12.7623   17.2882 H   0  0  0  0  0  0  0  0  0  0  0  0
  -18.6254  -13.6611   15.7776 H   0  0  0  0  0  0  0  0  0  0  0  0
  -17.1777  -13.0009   12.0226 H   0  0  0  0  0  0  0  0  0  0  0  0
  1  2  1  0
  2  3  1  0
  3  4  1  0
  4  5  1  0
  5  6  1  0
  1  7  1  0
  2  8  1  0
  3  9  1  0
  4 10  1  0
  1 11  1  0
  5 11  1  0
  6 12  1  0
  1 13  1  1
  2 14  1  1
  3 15  1  1
  4 16  1  1
  5 17  1  1
  6 18  1  1
  6 19  1  0
  7 20  1  0
  8 21  1  0
  9 22  1  0
 10 23  1  0
 12 24  1  0
M  END
