
     RDKit          3D

 37 40  0  0  0  0  0  0  0  0999 V2000
   18.4143   26.9290   49.8111 C   0  0  0  0  0  0  0  0  0  0  0  0
   18.4503   25.5956   49.8697 N   0  0  0  0  0  0  0  0  0  0  0  0
   19.2725   24.9077   49.0424 C   0  0  0  0  0  0  0  0  0  0  0  0
   20.3199   25.7086   48.3066 C   0  0  0  0  0  0  0  0  0  0  0  0
   20.1755   27.0612   48.3629 C   0  0  0  0  0  0  0  0  0  0  0  0
   19.1807   27.6758   49.1101 N   0  0  0  0  0  0  0  0  0  0  0  0
   21.3535   25.0633   47.5946 N   0  0  0  0  0  0  0  0  0  0  0  0
   22.1339   25.8382   46.6702 C   0  0  0  0  0  0  0  0  0  0  0  0
   21.9917   27.2659   46.7196 C   0  0  0  0  0  0  0  0  0  0  0  0
   21.0638   27.8731   47.6224 N   0  0  0  0  0  0  0  0  0  0  0  0
   23.0212   25.2301   45.7067 C   0  0  0  0  0  0  0  0  0  0  0  0
   23.6645   26.0580   44.7357 C   0  0  0  0  0  0  0  0  0  0  0  0
   23.5925   27.4595   44.8641 C   0  0  0  0  0  0  0  0  0  0  0  0
   22.7659   28.0280   45.8382 C   0  0  0  0  0  0  0  0  0  0  0  0
   21.6269   23.6339   47.7047 C   0  0  1  0  0  0  0  0  0  0  0  0
   23.0027   23.2624   47.2115 C   0  0  0  0  0  0  0  0  0  0  0  0
   23.2361   23.7030   45.7628 C   0  0  1  0  0  0  0  0  0  0  0  0
   17.4542   27.4757   50.5611 O   0  0  0  0  0  0  0  0  0  0  0  0
   24.3340   28.4026   43.9467 C   0  0  0  0  0  0  0  0  0  0  0  0
   24.4452   25.5119   43.5637 C   0  0  0  0  0  0  0  0  0  0  0  0
   21.6204   23.2096   49.0702 O   0  0  0  0  0  0  0  0  0  0  0  0
   22.2521   22.9938   44.8100 C   0  0  0  0  0  0  0  0  0  0  0  0
   24.6763   23.2140   45.4601 C   0  0  0  0  0  0  0  0  0  0  0  0
   21.1728   29.3319   47.9100 C   0  0  0  0  0  0  0  0  0  0  0  0
   19.1276   23.6922   48.9090 O   0  0  0  0  0  0  0  0  0  0  0  0
   19.9242   29.9670   48.5875 C   0  0  1  0  0  0  0  0  0  0  0  0
   20.1172   30.3789   50.0548 C   0  0  1  0  0  0  0  0  0  0  0  0
   18.7985   30.4236   50.8682 C   0  0  1  0  0  0  0  0  0  0  0  0
   17.5162   30.3503   50.0268 C   0  0  0  0  0  0  0  0  0  0  0  0
   19.3930   31.0680   47.8371 O   0  0  0  0  0  0  0  0  0  0  0  0
   21.0529   29.4950   50.6960 O   0  0  0  0  0  0  0  0  0  0  0  0
   18.8085   29.2962   51.7696 O   0  0  0  0  0  0  0  0  0  0  0  0
   16.3691   30.2839   50.8628 O   0  0  0  0  0  0  0  0  0  0  0  0
   16.2915   31.3219   52.0714 P   0  0  0  0  0  5  0  0  0  0  0  0
   16.8869   30.8992   53.3679 O   0  0  0  0  0  0  0  0  0  0  0  0
   16.9501   32.6610   51.5027 O   0  0  0  0  0  0  0  0  0  0  0  0
   14.7544   31.7409   52.1106 O   0  0  0  0  0  0  0  0  0  0  0  0
  1  2  4  0
  2  3  4  0
  3  4  4  0
  4  5  4  0
  5  6  4  0
  1  6  4  0
  4  7  1  0
  7  8  1  0
  8  9  4  0
  9 10  1  0
  5 10  1  0
  8 11  4  0
 11 12  4  0
 12 13  4  0
 13 14  4  0
  9 14  4  0
  7 15  1  0
 15 16  1  0
 11 17  1  0
 16 17  1  0
  1 18  1  0
 13 19  1  0
 12 20  1  0
 15 21  1  1
 17 22  1  6
 17 23  1  0
 10 24  1  0
  3 25  2  0
 24 26  1  0
 26 27  1  0
 27 28  1  0
 28 29  1  0
 26 30  1  6
 27 31  1  1
 28 32  1  1
 29 33  1  0
 33 34  1  0
 34 35  2  0
 34 36  1  0
 34 37  1  0
M  END
