7SIU_9ID_A_901
     RDKit          3D

 54 57  0  0  0  0  0  0  0  0999 V2000
    0.2893    3.3290   -3.1520 N   0  0  0  0  0  0  0  0  0  0  0  0
   -0.5283   -0.2890   -3.0422 N   0  0  0  0  0  0  0  0  0  0  0  0
    0.1473    0.4352   -0.8864 C   0  0  0  0  0  0  0  0  0  0  0  0
   -0.3194   -0.5849   -1.7293 C   0  0  0  0  0  0  0  0  0  0  0  0
   -0.3122    0.9481   -3.5653 C   0  0  0  0  0  0  0  0  0  0  0  0
   -0.5090    1.1383   -5.0227 C   0  0  0  0  0  0  0  0  0  0  0  0
   -0.5726   -1.9692   -1.2311 C   0  0  0  0  0  0  0  0  0  0  0  0
   -0.9164   -4.4142   -1.7122 C   0  0  0  0  0  0  0  0  0  0  0  0
   -0.6570   -2.2238    0.2654 C   0  0  0  0  0  0  0  0  0  0  0  0
   -1.4409   -3.4131    4.5116 C   0  0  0  0  0  0  0  0  0  0  0  0
   -2.0881   -3.4965    6.8596 C   0  0  0  0  0  0  0  0  0  0  0  0
   -0.0941   -3.6111    4.8887 C   0  0  0  0  0  0  0  0  0  0  0  0
    1.3388    5.5843   -2.8434 C   0  0  0  0  0  0  0  0  0  0  0  0
   -2.8540   -2.6145    2.7832 O   0  0  0  0  0  0  0  0  0  0  0  0
   -1.8158   -3.2629    3.0863 C   0  0  0  0  0  0  0  0  0  0  0  0
    0.2452   -3.7559    6.2372 C   0  0  0  0  0  0  0  0  0  0  0  0
   -0.7523   -3.6995    7.2226 C   0  0  0  0  0  0  0  0  0  0  0  0
   -2.4322   -3.3475    5.5127 C   0  0  0  0  0  0  0  0  0  0  0  0
   -1.0321   -3.8735    2.0499 N   0  0  0  0  0  0  0  0  0  0  0  0
   -1.2570   -3.5941    0.6279 C   0  0  2  0  0  0  0  0  0  0  0  0
   -0.6145   -4.6823   -0.2383 C   0  0  0  0  0  0  0  0  0  0  0  0
   -0.6188   -2.9937   -2.1099 C   0  0  0  0  0  0  0  0  0  0  0  0
    0.3552    1.6776   -1.3913 N   0  0  0  0  0  0  0  0  0  0  0  0
   -1.2731    0.1945   -5.7789 N   0  0  0  0  0  0  0  0  0  0  0  0
    0.0401    2.1004   -5.6250 O   0  0  0  0  0  0  0  0  0  0  0  0
    0.1396    1.9732   -2.7021 C   0  0  0  0  0  0  0  0  0  0  0  0
    1.2839    4.2237   -2.6294 C   0  0  0  0  0  0  0  0  0  0  0  0
    2.4063    3.9066   -1.8948 C   0  0  0  0  0  0  0  0  0  0  0  0
    2.4432    6.0724   -2.2385 N   0  0  0  0  0  0  0  0  0  0  0  0
    3.0671    5.0558   -1.6598 N   0  0  0  0  0  0  0  0  0  0  0  0
    4.3355    5.1779   -0.9590 C   0  0  0  0  0  0  0  0  0  0  0  0
   -0.4155    3.7189   -3.8201 H   0  0  0  0  0  0  0  0  0  0  0  0
    0.3488    0.2573    0.1612 H   0  0  0  0  0  0  0  0  0  0  0  0
   -0.3121   -5.1034   -2.3398 H   0  0  0  0  0  0  0  0  0  0  0  0
   -1.9906   -4.6183   -1.9132 H   0  0  0  0  0  0  0  0  0  0  0  0
   -1.2777   -1.4317    0.7402 H   0  0  0  0  0  0  0  0  0  0  0  0
    0.3721   -2.1566    0.6857 H   0  0  0  0  0  0  0  0  0  0  0  0
   -2.8602   -3.4523    7.6244 H   0  0  0  0  0  0  0  0  0  0  0  0
    0.6987   -3.6253    4.1517 H   0  0  0  0  0  0  0  0  0  0  0  0
    0.6319    6.1820   -3.4017 H   0  0  0  0  0  0  0  0  0  0  0  0
    1.2820   -3.9022    6.5209 H   0  0  0  0  0  0  0  0  0  0  0  0
   -0.4868   -3.8144    8.2657 H   0  0  0  0  0  0  0  0  0  0  0  0
   -3.4744   -3.1971    5.2529 H   0  0  0  0  0  0  0  0  0  0  0  0
   -0.3050   -4.5689    2.3167 H   0  0  0  0  0  0  0  0  0  0  0  0
   -2.3523   -3.5891    0.4233 H   0  0  0  0  0  0  0  0  0  0  0  0
    0.4866   -4.6970   -0.0780 H   0  0  0  0  0  0  0  0  0  0  0  0
   -1.0226   -5.6784    0.0425 H   0  0  0  0  0  0  0  0  0  0  0  0
   -0.5190   -2.8050   -3.1720 H   0  0  0  0  0  0  0  0  0  0  0  0
   -1.7322   -0.6250   -5.3211 H   0  0  0  0  0  0  0  0  0  0  0  0
   -1.3762    0.3088   -6.8132 H   0  0  0  0  0  0  0  0  0  0  0  0
    2.7263    2.9256   -1.5717 H   0  0  0  0  0  0  0  0  0  0  0  0
    4.4840    6.2248   -0.6141 H   0  0  0  0  0  0  0  0  0  0  0  0
    4.3437    4.5078   -0.0720 H   0  0  0  0  0  0  0  0  0  0  0  0
    5.1651    4.9011   -1.6400 H   0  0  0  0  0  0  0  0  0  0  0  0
  3  4  1  0
  2  4  2  0
  2  5  1  0
  5  6  1  0
  4  7  1  0
  7  9  1  0
 10 12  1  0
 14 15  2  0
 10 15  1  0
 12 16  2  0
 16 17  1  0
 11 17  2  0
 10 18  2  0
 11 18  1  0
 15 19  1  0
 20 19  1  0
  9 20  1  0
  8 21  1  0
 20 21  1  0
  8 22  1  0
  7 22  2  0
  3 23  2  0
  6 24  1  0
  6 25  2  0
 23 26  1  0
  5 26  2  0
  1 26  1  0
  1 27  1  0
 13 27  1  0
 27 28  2  0
 13 29  2  0
 28 30  1  0
 29 30  1  0
 30 31  1  0
  1 32  1  0
  3 33  1  0
  8 34  1  0
  8 35  1  0
  9 36  1  0
  9 37  1  0
 11 38  1  0
 12 39  1  0
 13 40  1  0
 16 41  1  0
 17 42  1  0
 18 43  1  0
 19 44  1  0
 20 45  1  1
 21 46  1  0
 21 47  1  0
 22 48  1  0
 24 49  1  0
 24 50  1  0
 28 51  1  0
 31 52  1  0
 31 53  1  0
 31 54  1  0
M  END
