1OF1_SCT_B_500
     RDKit          3D

 34 36  0  0  0  0  0  0  0  0999 V2000
   20.8282   27.3990    9.9670 O   0  0  0  0  0  0  0  0  0  0  0  0
   17.8734   24.7781    9.3114 O   0  0  0  0  0  0  0  0  0  0  0  0
   20.1704   20.1873    9.4559 O   0  0  0  0  0  0  0  0  0  0  0  0
   24.5008   19.3277    9.7662 O   0  0  0  0  0  0  0  0  0  0  0  0
   21.5301   21.9279    9.8378 N   0  0  0  0  0  4  0  0  0  0  0  0
   22.3191   19.7594    9.6116 N   0  0  0  0  0  4  0  0  0  0  0  0
   19.9618   25.2120   10.5933 C   0  0  1  0  0  0  0  0  0  0  0  0
   19.3092   24.9682    9.2107 C   0  0  1  0  0  0  0  0  0  0  0  0
   20.0173   23.7210    8.6471 C   0  0  0  0  0  0  0  0  0  0  0  0
   20.3583   22.8442    9.8804 C   0  0  2  0  0  0  0  0  0  0  0  0
   20.2926   23.7942   11.1452 C   0  0  2  0  0  0  0  0  0  0  0  0
   21.1822   26.1718   10.5924 C   0  0  0  0  0  0  0  0  0  0  0  0
   21.3128   20.6198    9.6302 C   0  0  0  0  0  0  0  0  0  0  0  0
   19.3650   22.6181   11.0850 C   0  0  0  0  0  0  0  0  0  0  0  0
   23.5862   20.1344    9.7863 C   0  0  0  0  0  0  0  0  0  0  0  0
   23.8811   21.5780   10.0081 C   0  0  0  0  0  0  0  0  0  0  0  0
   22.7815   22.4068   10.0205 C   0  0  0  0  0  0  0  0  0  0  0  0
   25.3056   22.0623   10.2039 C   0  0  0  0  0  0  0  0  0  0  0  0
   21.5934   27.9951    9.9688 H   0  0  0  0  0  0  0  0  0  0  0  0
   17.4651   25.5821    9.6690 H   0  0  0  0  0  0  0  0  0  0  0  0
   22.1239   18.8059    9.4631 H   0  0  0  0  0  0  0  0  0  0  0  0
   19.2827   25.7417   11.2283 H   0  0  0  0  0  0  0  0  0  0  0  0
   19.4258   25.8140    8.5660 H   0  0  0  0  0  0  0  0  0  0  0  0
   19.3687   23.1923    7.9801 H   0  0  0  0  0  0  0  0  0  0  0  0
   20.8934   23.9801    8.0904 H   0  0  0  0  0  0  0  0  0  0  0  0
   20.8531   24.1306   11.9925 H   0  0  0  0  0  0  0  0  0  0  0  0
   21.9899   25.7194   10.0556 H   0  0  0  0  0  0  0  0  0  0  0  0
   21.4826   26.3628   11.6015 H   0  0  0  0  0  0  0  0  0  0  0  0
   18.3163   22.7770   10.9439 H   0  0  0  0  0  0  0  0  0  0  0  0
   19.1601   21.7959   11.7382 H   0  0  0  0  0  0  0  0  0  0  0  0
   22.9158   23.4187   10.1730 H   0  0  0  0  0  0  0  0  0  0  0  0
   25.9756   21.2296   10.1518 H   0  0  0  0  0  0  0  0  0  0  0  0
   25.5516   22.7668    9.4369 H   0  0  0  0  0  0  0  0  0  0  0  0
   25.3940   22.5319   11.1610 H   0  0  0  0  0  0  0  0  0  0  0  0
  8  2  1  0
  7  8  1  0
  8  9  1  0
 10  5  1  1
  9 10  1  0
  7 11  1  0
 10 11  1  0
  1 12  1  0
  7 12  1  0
  3 13  2  0
  5 13  4  0
  6 13  4  0
 10 14  1  0
 11 14  1  0
  4 15  2  0
  6 15  4  0
 15 16  4  0
  5 17  4  0
 16 17  4  0
 16 18  1  0
  1 19  1  0
  2 20  1  0
  6 21  1  0
  7 22  1  6
  8 23  1  1
  9 24  1  0
  9 25  1  0
 11 26  1  6
 12 27  1  0
 12 28  1  0
 14 29  1  0
 14 30  1  0
 17 31  1  0
 18 32  1  0
 18 33  1  0
 18 34  1  0
M  CHG  2   5   1   6   1
M  END
