7OMJ_GCP_A_401
     RDKit          3D

 50 52  0  0  0  0  0  0  0  0999 V2000
    5.2010   -4.8602   27.9029 P   0  0  2  0  0  5  0  0  0  0  0  0
    5.5513   -4.2369   29.2359 O   0  0  0  0  0  0  0  0  0  0  0  0
    5.0173   -3.6402   26.7457 O   0  0  0  0  0  0  0  0  0  0  0  0
    3.7484   -5.7180   28.0422 O   0  0  0  0  0  0  0  0  0  0  0  0
    6.5315   -5.9846   27.3791 C   0  0  1  0  0  0  0  0  0  0  0  0
    7.2377   -5.4502   25.7863 P   0  0  1  0  0  5  0  0  0  0  0  0
    6.8981   -6.4609   24.7118 O   0  0  0  0  0  0  0  0  0  0  0  0
    6.5420   -3.9685   25.3600 O   0  0  0  0  0  0  0  0  0  0  0  0
    8.9224   -5.2117   25.9337 O   0  0  0  0  0  0  0  0  0  0  0  0
    9.6890   -5.8640   24.5602 P   0  0  1  0  0  5  0  0  0  0  0  0
   11.1404   -5.4412   24.5794 O   0  0  0  0  0  0  0  0  0  0  0  0
    9.6173   -7.5562   24.5938 O   0  0  0  0  0  0  0  0  0  0  0  0
    8.9639   -5.2350   23.1489 O   0  0  0  0  0  0  0  0  0  0  0  0
    9.5668   -5.8341   22.0263 C   0  0  2  0  0  0  0  0  0  0  0  0
    8.9410   -5.2697   20.7440 C   0  0  1  0  0  0  0  0  0  0  0  0
    9.3590   -6.0573   19.6433 O   0  0  0  0  0  0  0  0  0  0  0  0
    7.4022   -5.2603   20.8091 C   0  0  1  0  0  0  0  0  0  0  0  0
    6.8735   -4.0567   20.2997 O   0  0  0  0  0  0  0  0  0  0  0  0
    7.0305   -6.4557   19.9641 C   0  0  1  0  0  0  0  0  0  0  0  0
    5.7817   -6.3278   19.3237 O   0  0  0  0  0  0  0  0  0  0  0  0
    8.2083   -6.5641   19.0006 C   0  0  2  0  0  0  0  0  0  0  0  0
    8.4185   -7.9557   18.5955 N   0  0  0  0  0  0  0  0  0  0  0  0
    8.1106   -8.5122   17.3957 C   0  0  0  0  0  0  0  0  0  0  0  0
    8.3143   -9.8584   17.3554 N   0  0  0  0  0  0  0  0  0  0  0  0
    8.7583  -10.1278   18.5983 C   0  0  0  0  0  0  0  0  0  0  0  0
    9.1082  -11.3449   19.1637 C   0  0  0  0  0  0  0  0  0  0  0  0
    9.0579  -12.4129   18.4965 O   0  0  0  0  0  0  0  0  0  0  0  0
    9.5047  -11.3522   20.4739 N   0  0  0  0  0  0  0  0  0  0  0  0
    9.5442  -10.1905   21.2116 C   0  0  0  0  0  0  0  0  0  0  0  0
    9.9539  -10.2206   22.5782 N   0  0  0  0  0  0  0  0  0  0  0  0
    9.1910   -8.9992   20.6394 N   0  0  0  0  0  0  0  0  0  0  0  0
    8.8123   -8.9996   19.3388 C   0  0  0  0  0  0  0  0  0  0  0  0
    5.6587   -3.8733   26.0276 H   0  0  0  0  0  0  0  0  0  0  0  0
    3.8615   -6.5032   27.4493 H   0  0  0  0  0  0  0  0  0  0  0  0
    7.3301   -5.9889   28.1494 H   0  0  0  0  0  0  0  0  0  0  0  0
    6.1139   -7.0064   27.2849 H   0  0  0  0  0  0  0  0  0  0  0  0
    5.5711   -4.0928   25.5121 H   0  0  0  0  0  0  0  0  0  0  0  0
    9.2751   -7.7770   25.4959 H   0  0  0  0  0  0  0  0  0  0  0  0
    9.4090   -6.9361   22.0450 H   0  0  0  0  0  0  0  0  0  0  0  0
   10.6594   -5.6157   21.9991 H   0  0  0  0  0  0  0  0  0  0  0  0
    9.3273   -4.2352   20.6047 H   0  0  0  0  0  0  0  0  0  0  0  0
    7.0179   -5.3946   21.8438 H   0  0  0  0  0  0  0  0  0  0  0  0
    6.9185   -4.0900   19.3077 H   0  0  0  0  0  0  0  0  0  0  0  0
    7.0011   -7.3554   20.6197 H   0  0  0  0  0  0  0  0  0  0  0  0
    5.8745   -5.6961   18.5644 H   0  0  0  0  0  0  0  0  0  0  0  0
    8.0321   -5.9460   18.0914 H   0  0  0  0  0  0  0  0  0  0  0  0
    7.7249   -7.9473   16.5554 H   0  0  0  0  0  0  0  0  0  0  0  0
    9.7744  -12.2571   20.9217 H   0  0  0  0  0  0  0  0  0  0  0  0
    9.6166  -10.9712   23.2204 H   0  0  0  0  0  0  0  0  0  0  0  0
   10.6026   -9.4914   22.9495 H   0  0  0  0  0  0  0  0  0  0  0  0
  1  2  2  0
  1  3  1  6
  1  4  1  0
  1  5  1  0
  5  6  1  0
  6  7  2  0
  6  8  1  6
  6  9  1  0
 10  9  1  1
 10 11  2  0
 10 12  1  0
 10 13  1  0
 13 14  1  0
 15 14  1  0
 15 16  1  0
 15 17  1  0
 17 18  1  0
 17 19  1  0
 19 20  1  0
 16 21  1  0
 19 21  1  0
 21 22  1  0
 22 23  1  0
 23 24  2  0
 24 25  1  0
 25 26  1  0
 26 27  2  0
 26 28  1  0
 28 29  1  0
 29 30  1  0
 29 31  2  0
 22 32  1  0
 25 32  2  0
 31 32  1  0
  3 33  1  0
  4 34  1  0
  5 35  1  1
  5 36  1  0
  8 37  1  0
 12 38  1  0
 14 39  1  1
 14 40  1  0
 15 41  1  6
 17 42  1  1
 18 43  1  0
 19 44  1  1
 20 45  1  0
 21 46  1  6
 23 47  1  0
 28 48  1  0
 30 49  1  0
 30 50  1  0
M  END
