7L81_UD4_AAA_301
     RDKit          3D

 38 40  0  0  0  0  0  0  0  0999 V2000
  -18.5891  -23.7660   20.5749 N   0  0  0  0  0  0  0  0  0  0  0  0
  -17.3064  -23.7349   21.0274 C   0  0  0  0  0  0  0  0  0  0  0  0
  -16.3048  -23.3385   20.2524 N   0  0  0  0  0  0  0  0  0  0  0  0
  -18.8484  -23.3858   19.3115 C   0  0  0  0  0  0  0  0  0  0  0  0
  -17.8462  -22.9622   18.4541 C   0  0  0  0  0  0  0  0  0  0  0  0
  -16.5631  -22.9538   18.9757 C   0  0  0  0  0  0  0  0  0  0  0  0
   -8.1950  -14.0295   15.3513 O   0  0  0  0  0  0  0  0  0  0  0  0
   -9.3374  -13.9906   15.8790 C   0  0  0  0  0  0  0  0  0  0  0  0
   -9.6397  -13.1298   17.0609 C   0  0  0  0  0  0  0  0  0  0  0  0
  -10.3575  -14.8079   15.3061 N   0  0  0  0  0  0  0  0  0  0  0  0
  -10.0363  -15.6942   14.1944 C   0  0  2  0  0  0  0  0  0  0  0  0
  -11.0840  -15.5643   13.1049 C   0  0  1  0  0  0  0  0  0  0  0  0
  -10.5324  -15.1624   11.8812 O   0  0  0  0  0  0  0  0  0  0  0  0
  -11.8823  -16.8124   12.8880 C   0  0  2  0  0  0  0  0  0  0  0  0
  -13.0277  -16.8933   13.7958 N   0  0  0  0  0  0  0  0  0  0  0  0
  -11.0880  -18.0778   12.9565 C   0  0  1  0  0  0  0  0  0  0  0  0
  -10.9153  -18.6784   11.5720 C   0  0  0  0  0  0  0  0  0  0  0  0
   -9.8157  -17.8996   13.4852 O   0  0  0  0  0  0  0  0  0  0  0  0
   -9.8174  -17.1114   14.6247 C   0  0  2  0  0  0  0  0  0  0  0  0
  -10.6916  -17.5381   15.6018 O   0  0  0  0  0  0  0  0  0  0  0  0
   -9.9428  -18.5876   16.6698 P   0  0  1  0  0  5  0  0  0  0  0  0
  -10.2762  -20.0097   16.2754 O   0  0  0  0  0  0  0  0  0  0  0  0
   -8.2512  -18.4417   16.6161 O   0  0  0  0  0  0  0  0  0  0  0  0
  -10.5050  -18.3838   18.2713 O   0  0  0  0  0  0  0  0  0  0  0  0
  -11.9640  -19.2524   18.4591 P   0  0  1  0  0  5  0  0  0  0  0  0
  -12.9175  -18.3246   19.5218 O   0  0  0  0  0  0  0  0  0  0  0  0
  -12.6384  -19.2596   17.1139 O   0  0  0  0  0  0  0  0  0  0  0  0
  -11.7195  -20.7821   19.0872 O   0  0  0  0  0  0  0  0  0  0  0  0
  -12.5275  -21.7522   18.4967 C   0  0  0  0  0  0  0  0  0  0  0  0
  -13.0611  -22.6343   19.6016 C   0  0  1  0  0  0  0  0  0  0  0  0
  -14.2863  -22.2244   20.0550 O   0  0  0  0  0  0  0  0  0  0  0  0
  -13.3569  -24.0375   19.0924 C   0  0  1  0  0  0  0  0  0  0  0  0
  -12.2093  -24.7828   18.9291 O   0  0  0  0  0  0  0  0  0  0  0  0
  -14.2451  -24.5465   20.2092 C   0  0  1  0  0  0  0  0  0  0  0  0
  -13.3984  -25.0375   21.2265 O   0  0  0  0  0  0  0  0  0  0  0  0
  -14.9153  -23.2790   20.6642 C   0  0  2  0  0  0  0  0  0  0  0  0
  -17.0600  -24.0893   22.2070 O   0  0  0  0  0  0  0  0  0  0  0  0
  -20.0459  -23.4227   18.9130 O   0  0  0  0  0  0  0  0  0  0  0  0
  1  2  1  0
  2  3  1  0
  1  4  1  0
  4  5  1  0
  3  6  1  0
  5  6  2  0
  7  8  2  0
  9  8  1  6
  8 10  1  0
 11 10  1  1
 11 12  1  0
 12 13  1  6
 12 14  1  0
 14 15  1  1
 14 16  1  0
 17 16  1  1
 16 18  1  6
 11 19  1  0
 18 19  1  0
 19 20  1  1
 21 20  1  0
 21 22  2  0
 21 23  1  1
 21 24  1  0
 25 24  1  0
 25 26  1  1
 25 27  2  0
 25 28  1  0
 29 28  1  6
 30 29  1  0
 30 31  1  6
 30 32  1  0
 32 33  1  1
 32 34  1  0
 34 35  1  1
 36  3  1  6
 31 36  1  0
 34 36  1  0
  2 37  2  0
  4 38  2  0
M  END
$$$$
