8A2D_KXY_A_1103
     RDKit          3D

 86 93  0  0  0  0  0  0  0  0999 V2000
    3.7862   -5.2100    1.4308 C   0  0  1  0  0  0  0  0  0  0  0  0
    3.7462   -5.9015    0.0801 C   0  0  0  0  0  0  0  0  0  0  0  0
    4.7392   -0.7705   -0.1840 C   0  0  0  0  0  0  0  0  0  0  0  0
    4.8555   -4.1454    1.4967 C   0  0  0  0  0  0  0  0  0  0  0  0
    4.8778   -2.9165    0.8593 C   0  0  0  0  0  0  0  0  0  0  0  0
    3.9537   -2.1047    0.0080 C   0  0  0  0  0  0  0  0  0  0  0  0
    7.3343   -0.2775    0.4504 C   0  0  0  0  0  0  0  0  0  0  0  0
   -0.3778   -2.7140    1.0511 C   0  0  0  0  0  0  0  0  0  0  0  0
    2.6800   -6.4722   -0.2797 O   0  0  0  0  0  0  0  0  0  0  0  0
   -0.5821   -2.6407   -0.4394 C   0  0  0  0  0  0  0  0  0  0  0  0
    4.9210   -6.5843   -2.0532 C   0  0  0  0  0  0  0  0  0  0  0  0
   -4.2755    8.2172   -1.4637 C   0  0  0  0  0  0  0  0  0  0  0  0
    4.1338   -7.6453   -3.8675 C   0  0  0  0  0  0  0  0  0  0  0  0
    0.6677   -3.4868    1.5693 C   0  0  0  0  0  0  0  0  0  0  0  0
    0.9225   -3.5618    2.9129 C   0  0  0  0  0  0  0  0  0  0  0  0
    2.0881   -4.2925    3.0246 C   0  0  0  0  0  0  0  0  0  0  0  0
    0.1529   -2.8800    3.8570 C   0  0  0  0  0  0  0  0  0  0  0  0
   -3.6687    0.8781    0.4869 C   0  0  0  0  0  0  0  0  0  0  0  0
   -3.5943    1.1167   -0.8912 C   0  0  0  0  0  0  0  0  0  0  0  0
   -4.2899    2.1869   -1.4593 C   0  0  0  0  0  0  0  0  0  0  0  0
    6.0078   -0.9709    0.6615 C   0  0  0  0  0  0  0  0  0  0  0  0
    5.9792   -2.3011    1.1986 N   0  0  0  0  0  0  0  0  0  0  0  0
    6.6627   -3.1035    2.0297 C   0  0  0  0  0  0  0  0  0  0  0  0
    5.9939   -4.2681    2.2295 N   0  0  0  0  0  0  0  0  0  0  0  0
    6.4311    0.1141    1.6272 C   0  0  0  0  0  0  0  0  0  0  0  0
    2.4855   -4.6223    1.7716 N   0  0  0  0  0  0  0  0  0  0  0  0
   -1.1490   -1.9602    1.9780 C   0  0  0  0  0  0  0  0  0  0  0  0
   -0.8949   -2.0683    3.3677 C   0  0  0  0  0  0  0  0  0  0  0  0
    0.4751   -2.9356    5.3257 C   0  0  0  0  0  0  0  0  0  0  0  0
    1.7001   -2.3312    5.5662 F   0  0  0  0  0  0  0  0  0  0  0  0
    0.5242   -4.2561    5.7383 F   0  0  0  0  0  0  0  0  0  0  0  0
   -2.1086   -0.9870    1.5163 C   0  0  0  0  0  0  0  0  0  0  0  0
   -2.8539   -0.1522    1.0722 C   0  0  0  0  0  0  0  0  0  0  0  0
   -5.0630    3.0367   -0.6543 C   0  0  0  0  0  0  0  0  0  0  0  0
   -5.1580    2.7790    0.7278 C   0  0  0  0  0  0  0  0  0  0  0  0
   -4.4631    1.7030    1.2944 C   0  0  0  0  0  0  0  0  0  0  0  0
   -5.7534    4.2366   -1.2619 C   0  0  0  0  0  0  0  0  0  0  0  0
    1.6309   -4.1261    0.8776 N   0  0  0  0  0  0  0  0  0  0  0  0
    4.9218   -5.9916   -0.7480 N   0  0  0  0  0  0  0  0  0  0  0  0
    6.2590   -6.6320   -3.0664 S   0  0  0  0  0  0  0  0  0  0  0  0
    5.4395   -7.4388   -4.2943 C   0  0  0  0  0  0  0  0  0  0  0  0
    3.8471   -7.1699   -2.6237 N   0  0  0  0  0  0  0  0  0  0  0  0
   -3.8539    5.7746   -0.9273 C   0  0  0  0  0  0  0  0  0  0  0  0
   -3.6486    6.8931   -1.9560 C   0  0  0  0  0  0  0  0  0  0  0  0
   -5.5818    7.9719   -0.6699 C   0  0  0  0  0  0  0  0  0  0  0  0
   -6.1985    6.6089   -1.0021 C   0  0  0  0  0  0  0  0  0  0  0  0
   -5.2876    5.4946   -0.6449 N   0  0  0  0  0  0  0  0  0  0  0  0
   -4.5010    9.1718   -2.6546 C   0  0  0  0  0  0  0  0  0  0  0  0
   -4.8203   10.4617   -2.1997 O   0  0  0  0  0  0  0  0  0  0  0  0
    4.0297   -5.9933    2.1862 H   0  0  0  0  0  0  0  0  0  0  0  0
    5.0010   -0.6316   -1.2535 H   0  0  0  0  0  0  0  0  0  0  0  0
    4.1374    0.0934    0.1806 H   0  0  0  0  0  0  0  0  0  0  0  0
    3.7672   -2.6122   -0.9635 H   0  0  0  0  0  0  0  0  0  0  0  0
    3.0031   -1.9179    0.5475 H   0  0  0  0  0  0  0  0  0  0  0  0
    8.2286   -0.8640    0.7429 H   0  0  0  0  0  0  0  0  0  0  0  0
    7.3475    0.4503   -0.3889 H   0  0  0  0  0  0  0  0  0  0  0  0
    0.2040   -2.0177   -0.9085 H   0  0  0  0  0  0  0  0  0  0  0  0
   -1.5804   -2.2414   -0.6978 H   0  0  0  0  0  0  0  0  0  0  0  0
   -0.5355   -3.6670   -0.8644 H   0  0  0  0  0  0  0  0  0  0  0  0
   -3.5412    8.7049   -0.7780 H   0  0  0  0  0  0  0  0  0  0  0  0
    3.3938   -8.1546   -4.4674 H   0  0  0  0  0  0  0  0  0  0  0  0
    2.6517   -4.5005    3.9265 H   0  0  0  0  0  0  0  0  0  0  0  0
   -2.9804    0.4907   -1.5254 H   0  0  0  0  0  0  0  0  0  0  0  0
   -4.2046    2.3700   -2.5230 H   0  0  0  0  0  0  0  0  0  0  0  0
    7.6129   -2.8551    2.4813 H   0  0  0  0  0  0  0  0  0  0  0  0
    5.9449    1.1039    1.4912 H   0  0  0  0  0  0  0  0  0  0  0  0
    6.8116   -0.2330    2.6119 H   0  0  0  0  0  0  0  0  0  0  0  0
   -1.4857   -1.4843    4.0644 H   0  0  0  0  0  0  0  0  0  0  0  0
   -0.3000   -2.4111    5.9252 H   0  0  0  0  0  0  0  0  0  0  0  0
   -5.7521    3.4258    1.3638 H   0  0  0  0  0  0  0  0  0  0  0  0
   -4.5300    1.5290    2.3651 H   0  0  0  0  0  0  0  0  0  0  0  0
   -6.8439    4.1172   -1.0929 H   0  0  0  0  0  0  0  0  0  0  0  0
   -5.6030    4.2761   -2.3664 H   0  0  0  0  0  0  0  0  0  0  0  0
    5.8328   -5.6274   -0.3988 H   0  0  0  0  0  0  0  0  0  0  0  0
    5.8556   -7.7398   -5.2499 H   0  0  0  0  0  0  0  0  0  0  0  0
   -3.3087    4.8750   -1.2857 H   0  0  0  0  0  0  0  0  0  0  0  0
   -3.3592    6.0788    0.0222 H   0  0  0  0  0  0  0  0  0  0  0  0
   -2.5540    7.0406   -2.1210 H   0  0  0  0  0  0  0  0  0  0  0  0
   -4.0990    6.5756   -2.9249 H   0  0  0  0  0  0  0  0  0  0  0  0
   -6.3294    8.7714   -0.8577 H   0  0  0  0  0  0  0  0  0  0  0  0
   -5.3566    8.0016    0.4183 H   0  0  0  0  0  0  0  0  0  0  0  0
   -6.4545    6.5878   -2.0865 H   0  0  0  0  0  0  0  0  0  0  0  0
   -7.1440    6.5047   -0.4284 H   0  0  0  0  0  0  0  0  0  0  0  0
   -5.3264    8.7984   -3.2939 H   0  0  0  0  0  0  0  0  0  0  0  0
   -3.5808    9.2118   -3.2880 H   0  0  0  0  0  0  0  0  0  0  0  0
   -3.9700   10.8861   -1.9166 H   0  0  0  0  0  0  0  0  0  0  0  0
  1  2  1  0
  1  4  1  0
  4  5  2  0
  5  6  1  0
  3  6  1  0
  2  9  2  0
  8 10  1  0
  8 14  1  0
 14 15  1  0
 15 16  2  0
 15 17  1  0
 18 19  2  0
 19 20  1  0
  7 21  1  0
  3 21  1  0
  5 22  1  0
 21 22  1  0
 22 23  1  0
 23 24  2  0
  4 24  1  0
  7 25  1  0
 21 25  1  0
  1 26  1  0
 16 26  1  0
  8 27  2  0
 27 28  1  0
 17 28  2  0
 17 29  1  0
 29 30  1  0
 29 31  1  0
 27 32  1  0
 18 33  1  0
 32 33  3  0
 20 34  2  0
 34 35  1  0
 35 36  2  0
 18 36  1  0
 34 37  1  0
 14 38  2  0
 26 38  1  0
  2 39  1  0
 11 39  1  0
 11 40  1  0
 13 41  2  0
 40 41  1  0
 11 42  2  0
 13 42  1  0
 12 44  1  0
 43 44  1  0
 12 45  1  0
 45 46  1  0
 43 47  1  0
 46 47  1  0
 37 47  1  0
 12 48  1  0
 48 49  1  0
  1 50  1  1
  3 51  1  0
  3 52  1  0
  6 53  1  0
  6 54  1  0
  7 55  1  0
  7 56  1  0
 10 57  1  0
 10 58  1  0
 10 59  1  0
 12 60  1  0
 13 61  1  0
 16 62  1  0
 19 63  1  0
 20 64  1  0
 23 65  1  0
 25 66  1  0
 25 67  1  0
 28 68  1  0
 29 69  1  0
 35 70  1  0
 36 71  1  0
 37 72  1  0
 37 73  1  0
 39 74  1  0
 41 75  1  0
 43 76  1  0
 43 77  1  0
 44 78  1  0
 44 79  1  0
 45 80  1  0
 45 81  1  0
 46 82  1  0
 46 83  1  0
 48 84  1  0
 48 85  1  0
 49 86  1  0
M  END
