8A2D_KXY_A_1103
     RDKit          3D

 49 56  0  0  0  0  0  0  0  0999 V2000
   -7.0540   -9.6380   22.1260 C   0  0  1  0  0  0  0  0  0  0  0  0
   -7.4170  -10.4250   23.3330 C   0  0  0  0  0  0  0  0  0  0  0  0
   -9.8190   -6.5910   24.6830 C   0  0  0  0  0  0  0  0  0  0  0  0
   -7.6110   -8.2560   22.1530 C   0  0  0  0  0  0  0  0  0  0  0  0
   -8.4350   -7.7160   23.0420 C   0  0  0  0  0  0  0  0  0  0  0  0
   -9.2480   -7.9610   24.3270 C   0  0  0  0  0  0  0  0  0  0  0  0
  -10.7710   -4.9780   22.7940 C   0  0  0  0  0  0  0  0  0  0  0  0
   -2.5710  -10.9540   20.9000 C   0  0  0  0  0  0  0  0  0  0  0  0
   -6.7840  -10.3570   24.3920 O   0  0  0  0  0  0  0  0  0  0  0  0
   -2.8580  -12.1330   19.9600 C   0  0  0  0  0  0  0  0  0  0  0  0
   -9.0080  -11.9400   24.2790 C   0  0  0  0  0  0  0  0  0  0  0  0
    6.0990  -13.7730   14.1720 C   0  0  0  0  0  0  0  0  0  0  0  0
  -10.4200  -13.3450   25.2910 C   0  0  0  0  0  0  0  0  0  0  0  0
   -3.6380  -10.3180   21.4830 C   0  0  0  0  0  0  0  0  0  0  0  0
   -3.4610   -9.2170   22.3730 C   0  0  0  0  0  0  0  0  0  0  0  0
   -4.7370   -8.7820   22.7130 C   0  0  0  0  0  0  0  0  0  0  0  0
   -2.1300   -8.7700   22.7090 C   0  0  0  0  0  0  0  0  0  0  0  0
    1.9790  -12.4890   19.7590 C   0  0  0  0  0  0  0  0  0  0  0  0
    3.1900  -11.8450   19.8070 C   0  0  0  0  0  0  0  0  0  0  0  0
    4.3410  -12.5360   19.3070 C   0  0  0  0  0  0  0  0  0  0  0  0
   -9.6100   -5.7260   23.4510 C   0  0  0  0  0  0  0  0  0  0  0  0
   -8.6930   -6.4220   22.6400 N   0  0  0  0  0  0  0  0  0  0  0  0
   -8.0060   -6.2450   21.5080 C   0  0  0  0  0  0  0  0  0  0  0  0
   -7.3210   -7.3320   21.1790 N   0  0  0  0  0  0  0  0  0  0  0  0
   -9.6330   -4.1960   23.5050 C   0  0  0  0  0  0  0  0  0  0  0  0
   -5.5760   -9.5900   22.0250 N   0  0  0  0  0  0  0  0  0  0  0  0
   -1.3090  -10.5410   21.2680 C   0  0  0  0  0  0  0  0  0  0  0  0
   -1.1000   -9.4840   22.1330 C   0  0  0  0  0  0  0  0  0  0  0  0
   -1.8630   -7.7210   23.6960 C   0  0  0  0  0  0  0  0  0  0  0  0
   -2.6470   -6.6030   23.4250 F   0  0  0  0  0  0  0  0  0  0  0  0
   -2.3030   -8.0810   24.9340 F   0  0  0  0  0  0  0  0  0  0  0  0
   -0.1170  -11.2160   20.7370 C   0  0  0  0  0  0  0  0  0  0  0  0
    0.8310  -11.7770   20.3210 C   0  0  0  0  0  0  0  0  0  0  0  0
    4.1780  -13.8180   18.8880 C   0  0  0  0  0  0  0  0  0  0  0  0
    2.9570  -14.4920   18.8820 C   0  0  0  0  0  0  0  0  0  0  0  0
    1.8270  -13.8030   19.3590 C   0  0  0  0  0  0  0  0  0  0  0  0
    5.4260  -14.5270   18.3250 C   0  0  0  0  0  0  0  0  0  0  0  0
   -4.9560  -10.5450   21.2900 N   0  0  0  0  0  0  0  0  0  0  0  0
   -8.5140  -11.2200   23.2350 N   0  0  0  0  0  0  0  0  0  0  0  0
   -8.3070  -12.0610   25.8370 S   0  0  0  0  0  0  0  0  0  0  0  0
   -9.5760  -13.1560   26.3260 C   0  0  0  0  0  0  0  0  0  0  0  0
  -10.0810  -12.6610   24.1380 N   0  0  0  0  0  0  0  0  0  0  0  0
    6.0550  -15.4110   16.1000 C   0  0  0  0  0  0  0  0  0  0  0  0
    5.7450  -15.2040   14.6080 C   0  0  0  0  0  0  0  0  0  0  0  0
    5.3680  -12.7210   15.0280 C   0  0  0  0  0  0  0  0  0  0  0  0
    5.7730  -12.9520   16.4890 C   0  0  0  0  0  0  0  0  0  0  0  0
    5.3990  -14.3300   16.8630 N   0  0  0  0  0  0  0  0  0  0  0  0
    7.6110  -13.5830   14.3080 C   0  0  0  0  0  0  0  0  0  0  0  0
    7.8910  -12.1920   14.2080 O   0  0  0  0  0  0  0  0  0  0  0  0
  1  2  1  0
  1  4  1  0
  4  5  2  0
  5  6  1  0
  3  6  1  0
  2  9  2  0
  8 10  1  0
  8 14  1  0
 14 15  1  0
 15 16  2  0
 15 17  1  0
 18 19  2  0
 19 20  1  0
  7 21  1  0
  3 21  1  0
  5 22  1  0
 21 22  1  0
 22 23  1  0
 23 24  2  0
  4 24  1  0
  7 25  1  0
 21 25  1  0
  1 26  1  1
 16 26  1  0
  8 27  2  0
 27 28  1  0
 17 28  2  0
 17 29  1  0
 29 30  1  0
 29 31  1  0
 27 32  1  0
 18 33  1  0
 32 33  3  0
 20 34  2  0
 34 35  1  0
 35 36  2  0
 18 36  1  0
 34 37  1  0
 14 38  2  0
 26 38  1  0
  2 39  1  0
 11 39  1  0
 11 40  1  0
 13 41  2  0
 40 41  1  0
 11 42  2  0
 13 42  1  0
 12 44  1  0
 43 44  1  0
 12 45  1  0
 45 46  1  0
 43 47  1  0
 46 47  1  0
 37 47  1  0
 12 48  1  0
 48 49  1  0
M  END
$$$$
