1KE5_LS1_A_299
     RDKit          3D

 38 40  0  0  0  0  0  0  0  0999 V2000
   -9.7688   53.1725   40.4536 N   0  0  0  0  0  0  0  0  0  0  0  0
  -10.2075   52.3067   39.4105 C   0  0  0  0  0  0  0  0  0  0  0  0
   -9.5551   50.9899   39.5140 C   0  0  0  0  0  0  0  0  0  0  0  0
   -7.8548   50.1890   41.3113 C   0  0  0  0  0  0  0  0  0  0  0  0
   -7.1515   50.5855   42.4616 C   0  0  0  0  0  0  0  0  0  0  0  0
   -7.3080   51.8864   42.9817 C   0  0  0  0  0  0  0  0  0  0  0  0
   -8.1689   52.8034   42.3560 C   0  0  0  0  0  0  0  0  0  0  0  0
   -8.8568   52.3914   41.2155 C   0  0  0  0  0  0  0  0  0  0  0  0
   -8.7072   51.1152   40.7039 C   0  0  0  0  0  0  0  0  0  0  0  0
  -11.0706   52.6439   38.5583 O   0  0  0  0  0  0  0  0  0  0  0  0
   -9.6985   49.8983   38.7486 C   0  0  0  0  0  0  0  0  0  0  0  0
  -10.5147   49.8823   37.5671 N   0  0  0  0  0  0  0  0  0  0  0  0
  -10.7224   48.6954   36.7811 C   0  0  0  0  0  0  0  0  0  0  0  0
  -11.7340   47.7938   37.1486 C   0  0  0  0  0  0  0  0  0  0  0  0
  -11.9487   46.6276   36.4088 C   0  0  0  0  0  0  0  0  0  0  0  0
  -11.1507   46.3418   35.2948 C   0  0  0  0  0  0  0  0  0  0  0  0
  -10.1242   47.2247   34.9352 C   0  0  0  0  0  0  0  0  0  0  0  0
   -9.9080   48.3924   35.6732 C   0  0  0  0  0  0  0  0  0  0  0  0
  -11.4183   44.8579   34.3817 S   0  0  2  0  0  6  0  0  0  0  0  0
  -12.0340   45.1762   33.0472 O   0  0  0  0  0  0  0  0  0  0  0  0
  -12.3687   43.9788   35.1448 O   0  0  0  0  0  0  0  0  0  0  0  0
   -9.9194   44.0105   34.1491 N   0  0  0  0  0  0  0  0  0  0  0  0
   -9.7205   43.0518   35.2336 C   0  0  2  0  0  0  0  0  0  0  0  0
  -10.0739   54.1545   40.6357 H   0  0  0  0  0  0  0  0  0  0  0  0
   -7.7330   49.1907   40.9132 H   0  0  0  0  0  0  0  0  0  0  0  0
   -6.4850   49.8875   42.9511 H   0  0  0  0  0  0  0  0  0  0  0  0
   -6.7610   52.1809   43.8679 H   0  0  0  0  0  0  0  0  0  0  0  0
   -8.2941   53.8036   42.7498 H   0  0  0  0  0  0  0  0  0  0  0  0
   -9.1563   49.0027   39.0213 H   0  0  0  0  0  0  0  0  0  0  0  0
  -10.8625   50.7859   37.1782 H   0  0  0  0  0  0  0  0  0  0  0  0
  -12.3620   47.9990   38.0066 H   0  0  0  0  0  0  0  0  0  0  0  0
  -12.7350   45.9456   36.7071 H   0  0  0  0  0  0  0  0  0  0  0  0
   -9.4825   47.0058   34.0914 H   0  0  0  0  0  0  0  0  0  0  0  0
   -9.0913   49.0414   35.3880 H   0  0  0  0  0  0  0  0  0  0  0  0
  -10.0062   43.4704   33.2578 H   0  0  0  0  0  0  0  0  0  0  0  0
   -8.7881   42.4785   35.0481 H   0  0  0  0  0  0  0  0  0  0  0  0
  -10.5669   42.3332   35.2910 H   0  0  0  0  0  0  0  0  0  0  0  0
   -9.6099   43.5821   36.2033 H   0  0  0  0  0  0  0  0  0  0  0  0
  1  2  1  0
  2  3  1  0
  4  5  1  0
  5  6  2  0
  6  7  1  0
  1  8  1  0
  7  8  2  0
  3  9  1  0
  4  9  2  0
  8  9  1  0
  2 10  2  0
  3 11  2  0
 11 12  1  0
 12 13  1  0
 13 14  2  0
 14 15  1  0
 15 16  2  0
 16 17  1  0
 13 18  1  0
 17 18  2  0
 16 19  1  0
 19 20  2  0
 19 21  2  0
 19 22  1  6
 22 23  1  0
  1 24  1  0
  4 25  1  0
  5 26  1  0
  6 27  1  0
  7 28  1  0
 11 29  1  0
 12 30  1  0
 14 31  1  0
 15 32  1  0
 17 33  1  0
 18 34  1  0
 22 35  1  0
 23 36  1  6
 23 37  1  0
 23 38  1  0
M  END
