8DKO_TFB_B_2002
     RDKit          3D

 16 16  0  0  0  0  0  0  0  0999 V2000
   -0.1907   -2.5787    2.4002 O   0  0  0  0  0  0  0  0  0  0  0  0
    0.9796   -2.7575    1.6299 C   0  0  1  0  0  0  0  0  0  0  0  0
    0.8041   -2.0966    0.2937 C   0  0  0  0  0  0  0  0  0  0  0  0
    0.0510   -0.9311    0.1924 O   0  0  0  0  0  0  0  0  0  0  0  0
    2.1763   -2.1796    2.3797 C   0  0  0  0  0  0  0  0  0  0  0  0
    1.5458   -1.3325    3.4410 C   0  0  0  0  0  0  0  0  0  0  0  0
    0.1840   -1.9663    3.6117 C   0  0  0  0  0  0  0  0  0  0  0  0
    1.3055   -2.6130   -0.7415 O   0  0  0  0  0  0  0  0  0  0  0  0
    1.1358   -3.8468    1.4689 H   0  0  0  0  0  0  0  0  0  0  0  0
   -0.0898   -0.4800   -0.7037 H   0  0  0  0  0  0  0  0  0  0  0  0
    2.8609   -1.5833    1.7358 H   0  0  0  0  0  0  0  0  0  0  0  0
    2.7548   -3.0029    2.8552 H   0  0  0  0  0  0  0  0  0  0  0  0
    1.4344   -0.2871    3.0766 H   0  0  0  0  0  0  0  0  0  0  0  0
    2.1305   -1.3458    4.3865 H   0  0  0  0  0  0  0  0  0  0  0  0
   -0.5681   -1.1987    3.8927 H   0  0  0  0  0  0  0  0  0  0  0  0
    0.2210   -2.7385    4.4111 H   0  0  0  0  0  0  0  0  0  0  0  0
  1  2  1  0
  2  3  1  0
  3  4  1  0
  2  5  1  0
  5  6  1  0
  1  7  1  0
  6  7  1  0
  3  8  2  0
  2  9  1  1
  4 10  1  0
  5 11  1  0
  5 12  1  0
  6 13  1  0
  6 14  1  0
  7 15  1  0
  7 16  1  0
M  END
