1JJE_BYS_A_250
     RDKit          3D

 25 27  0  0  0  0  0  0  0  0999 V2000
   57.6165   24.8163   34.3697 C   0  0  1  0  0  0  0  0  0  0  0  0
   57.2971   26.1838   34.8946 C   0  0  0  0  0  0  0  0  0  0  0  0
   56.3388   26.8444   34.3867 O   0  0  0  0  0  0  0  0  0  0  0  0
   57.9891   26.7961   35.9174 O   0  0  0  0  0  0  0  0  0  0  0  0
   56.7137   23.8134   35.0687 C   0  0  0  0  0  0  0  0  0  0  0  0
   57.1749   23.4946   36.4378 C   0  0  0  0  0  0  0  0  0  0  0  0
   56.5192   22.4701   37.1194 C   0  0  0  0  0  0  0  0  0  0  0  0
   56.8687   22.1012   38.3935 C   0  0  0  0  0  0  0  0  0  0  0  0
   57.9013   22.7544   39.0389 C   0  0  0  0  0  0  0  0  0  0  0  0
   58.5609   23.7662   38.3871 C   0  0  0  0  0  0  0  0  0  0  0  0
   58.1913   24.1271   37.0919 C   0  0  0  0  0  0  0  0  0  0  0  0
   57.4721   24.6887   32.8888 C   0  0  1  0  0  0  0  0  0  0  0  0
   57.8381   25.9430   32.2153 C   0  0  0  0  0  0  0  0  0  0  0  0
   58.9264   26.5575   32.3270 O   0  0  0  0  0  0  0  0  0  0  0  0
   56.9072   26.5464   31.3573 O   0  0  0  0  0  0  0  0  0  0  0  0
   58.1472   23.4561   32.3487 C   0  0  0  0  0  0  0  0  0  0  0  0
   58.0225   23.2674   30.8832 C   0  0  0  0  0  0  0  0  0  0  0  0
   56.9025   22.7582   30.2632 C   0  0  0  0  0  0  0  0  0  0  0  0
   56.8156   22.5919   28.8903 C   0  0  0  0  0  0  0  0  0  0  0  0
   55.7932   22.1012   28.0551 O   0  0  0  0  0  0  0  0  0  0  0  0
   56.0407   22.6373   26.7453 C   0  0  0  0  0  0  0  0  0  0  0  0
   57.4718   22.6540   26.7828 O   0  0  0  0  0  0  0  0  0  0  0  0
   57.8792   22.9419   28.0821 C   0  0  0  0  0  0  0  0  0  0  0  0
   59.0010   23.4500   28.6815 C   0  0  0  0  0  0  0  0  0  0  0  0
   59.1012   23.6227   30.0662 C   0  0  0  0  0  0  0  0  0  0  0  0
  1  2  1  1
  2  3  2  0
  2  4  1  0
  1  5  1  0
  5  6  1  1
  6  7  2  0
  7  8  1  0
  8  9  2  0
  9 10  1  0
  6 11  1  0
 10 11  2  0
  1 12  1  0
 12 13  1  6
 13 14  2  0
 13 15  1  0
 12 16  1  0
 16 17  1  6
 17 18  2  0
 18 19  1  0
 19 20  1  0
 21 20  1  1
 21 22  1  0
 19 23  2  0
 22 23  1  0
 23 24  1  0
 17 25  1  0
 24 25  2  0
M  END
$$$$
