7MEU_MGP_A_1000
     RDKit          3D

 52 54  0  0  0  0  0  0  0  0999 V2000
    2.6418    8.5213   81.0614 P   0  0  2  0  0  5  0  0  0  0  0  0
    3.1161    7.2059   82.0127 O   0  0  0  0  0  0  0  0  0  0  0  0
    2.4657    8.0530   79.6344 O   0  0  0  0  0  0  0  0  0  0  0  0
    3.8773    9.6896   81.1253 O   0  0  0  0  0  0  0  0  0  0  0  0
    1.1723    9.1574   81.6534 O   0  0  0  0  0  0  0  0  0  0  0  0
    3.3406   11.0711   80.2882 P   0  0  2  0  0  5  0  0  0  0  0  0
    4.3770   11.4152   78.9889 O   0  0  0  0  0  0  0  0  0  0  0  0
    3.3785   12.2301   81.2553 O   0  0  0  0  0  0  0  0  0  0  0  0
    1.7402   10.8179   79.7573 O   0  0  0  0  0  0  0  0  0  0  0  0
    1.1664    9.3782   80.4677 P   0  0  2  0  0  5  0  0  0  0  0  0
    1.7039    9.3183   82.0688 O   0  0  0  0  0  0  0  0  0  0  0  0
    1.7037    8.1728   79.7287 O   0  0  0  0  0  0  0  0  0  0  0  0
   -0.5261    9.3380   80.4649 O   0  0  0  0  0  0  0  0  0  0  0  0
    0.4774    9.7455   80.5806 C   0  0  1  0  0  0  0  0  0  0  0  0
   -0.8650   10.3023   81.0754 C   0  0  1  0  0  0  0  0  0  0  0  0
   -1.4183   11.1357   80.0739 O   0  0  0  0  0  0  0  0  0  0  0  0
   -1.8634    9.1867   81.4032 C   0  0  1  0  0  0  0  0  0  0  0  0
   -2.7001    9.5864   82.4589 O   0  0  0  0  0  0  0  0  0  0  0  0
   -2.6396    9.0769   80.1149 C   0  0  1  0  0  0  0  0  0  0  0  0
   -3.9603    8.6181   80.2934 O   0  0  0  0  0  0  0  0  0  0  0  0
   -2.5583   10.4921   79.5416 C   0  0  2  0  0  0  0  0  0  0  0  0
   -2.4985   10.4542   78.0772 N   0  0  0  0  0  0  0  0  0  0  0  0
   -3.5582   10.4024   77.2273 C   0  0  0  0  0  0  0  0  0  0  0  0
   -3.1712   10.2998   75.9293 N   0  0  0  0  0  4  0  0  0  0  0  0
   -4.0364   10.2737   74.7549 C   0  0  2  0  0  0  0  0  0  0  0  0
   -1.8242   10.2965   75.9754 C   0  0  0  0  0  0  0  0  0  0  0  0
   -0.8723   10.2575   74.9574 C   0  0  0  0  0  0  0  0  0  0  0  0
   -1.2071   10.1937   73.7448 O   0  0  0  0  0  0  0  0  0  0  0  0
    0.4502   10.2952   75.3132 N   0  0  0  0  0  0  0  0  0  0  0  0
    0.8288   10.3733   76.6334 C   0  0  0  0  0  0  0  0  0  0  0  0
    2.2152   10.4175   76.9813 N   0  0  0  0  0  0  0  0  0  0  0  0
   -0.1176   10.4217   77.6204 N   0  0  0  0  0  0  0  0  0  0  0  0
   -1.4253   10.3770   77.2683 C   0  0  0  0  0  0  0  0  0  0  0  0
    3.8366    7.5604   82.5944 H   0  0  0  0  0  0  0  0  0  0  0  0
    4.1137   10.7858   78.2706 H   0  0  0  0  0  0  0  0  0  0  0  0
    2.3990   10.0199   82.1318 H   0  0  0  0  0  0  0  0  0  0  0  0
   -0.7929    9.8804   81.2489 H   0  0  0  0  0  0  0  0  0  0  0  0
    1.0631   10.5916   80.1542 H   0  0  0  0  0  0  0  0  0  0  0  0
    0.2781    8.9956   79.7828 H   0  0  0  0  0  0  0  0  0  0  0  0
   -0.6681   10.9187   81.9804 H   0  0  0  0  0  0  0  0  0  0  0  0
   -1.3748    8.2152   81.6495 H   0  0  0  0  0  0  0  0  0  0  0  0
   -2.8444    8.7837   83.0238 H   0  0  0  0  0  0  0  0  0  0  0  0
   -2.1078    8.3672   79.4402 H   0  0  0  0  0  0  0  0  0  0  0  0
   -4.2272    8.7746   81.2351 H   0  0  0  0  0  0  0  0  0  0  0  0
   -3.4469   11.0864   79.8459 H   0  0  0  0  0  0  0  0  0  0  0  0
   -4.5930   10.4406   77.5483 H   0  0  0  0  0  0  0  0  0  0  0  0
   -5.1042   10.3204   75.0621 H   0  0  0  0  0  0  0  0  0  0  0  0
   -3.8737    9.3319   74.1855 H   0  0  0  0  0  0  0  0  0  0  0  0
   -3.8103   11.1459   74.1040 H   0  0  0  0  0  0  0  0  0  0  0  0
    1.1855   10.2698   74.5654 H   0  0  0  0  0  0  0  0  0  0  0  0
    2.5163   10.2201   77.9614 H   0  0  0  0  0  0  0  0  0  0  0  0
    2.9393   10.6599   76.2678 H   0  0  0  0  0  0  0  0  0  0  0  0
  1  2  1  1
  1  3  2  0
  1  4  1  0
  1  5  1  0
  6  4  1  1
  6  7  1  0
  6  8  2  0
  6  9  1  0
 10  9  1  6
 10 11  1  0
 10 12  2  0
 10 13  1  0
  5 14  1  0
 15 14  1  0
 15 16  1  0
 15 17  1  0
 17 18  1  0
 17 19  1  0
 19 20  1  0
 16 21  1  0
 19 21  1  0
 21 22  1  0
 22 23  1  0
 23 24  2  0
 24 25  1  0
 24 26  1  0
 26 27  1  0
 27 28  2  0
 27 29  1  0
 29 30  1  0
 30 31  1  0
 30 32  2  0
 22 33  1  0
 26 33  2  0
 32 33  1  0
  2 34  1  0
  7 35  1  0
 11 36  1  0
 13 37  1  0
 14 38  1  6
 14 39  1  0
 15 40  1  1
 17 41  1  1
 18 42  1  0
 19 43  1  6
 20 44  1  0
 21 45  1  6
 23 46  1  0
 25 47  1  1
 25 48  1  0
 25 49  1  0
 29 50  1  0
 31 51  1  0
 31 52  1  0
M  CHG  1  24   1
M  END
