8FLN_Y7W_A_701
     RDKit          3D

 34 36  0  0  0  0  0  0  0  0999 V2000
  -21.9129    5.0396    3.1355 N   0  0  0  0  0  0  0  0  0  0  0  0
  -22.4205    3.4591    1.2126 C   0  0  0  0  0  0  0  0  0  0  0  0
  -23.6235    3.9379    0.7514 C   0  0  0  0  0  0  0  0  0  0  0  0
  -24.3970    5.0878    1.1827 C   0  0  0  0  0  0  0  0  0  0  0  0
  -25.7240    4.9077    1.5662 C   0  0  0  0  0  0  0  0  0  0  0  0
  -26.5014    5.9789    1.9598 C   0  0  0  0  0  0  0  0  0  0  0  0
  -26.7894    8.4482    2.4162 C   0  0  0  0  0  0  0  0  0  0  0  0
  -24.4926   10.6539    4.6404 C   0  0  0  0  0  0  0  0  0  0  0  0
  -22.4752   11.4753    5.7175 C   0  0  0  0  0  0  0  0  0  0  0  0
  -22.9901   12.7328    5.8240 C   0  0  0  0  0  0  0  0  0  0  0  0
  -26.7764   13.5400    4.3412 C   0  0  0  0  0  0  0  0  0  0  0  0
  -23.9224    6.3771    1.2207 C   0  0  0  0  0  0  0  0  0  0  0  0
  -24.5135    0.1959   -1.1620 C   0  0  0  0  0  0  0  0  0  0  0  0
  -20.4624    3.4248    2.4448 O   0  0  0  0  0  0  0  0  0  0  0  0
  -21.5732    3.9684    2.2734 C   0  0  0  0  0  0  0  0  0  0  0  0
  -26.0291    7.2616    1.9988 C   0  0  0  0  0  0  0  0  0  0  0  0
  -25.8716    9.5009    2.8286 N   0  0  0  0  0  0  0  0  0  0  0  0
  -25.1883    9.5349    4.0513 C   0  0  0  0  0  0  0  0  0  0  0  0
  -23.2011   10.4640    5.1438 C   0  0  0  0  0  0  0  0  0  0  0  0
  -21.2292   11.2340    6.1885 F   0  0  0  0  0  0  0  0  0  0  0  0
  -24.2490   12.9666    5.3460 C   0  0  0  0  0  0  0  0  0  0  0  0
  -24.9822   11.9306    4.7628 C   0  0  0  0  0  0  0  0  0  0  0  0
  -26.2380   12.2489    4.3081 O   0  0  0  0  0  0  0  0  0  0  0  0
  -25.1816    8.4498    4.7193 O   0  0  0  0  0  0  0  0  0  0  0  0
  -24.7029    7.4565    1.6171 C   0  0  0  0  0  0  0  0  0  0  0  0
  -24.0091    3.1124   -0.2203 N   0  0  0  0  0  0  0  0  0  0  0  0
  -23.1536    2.1298   -0.4345 N   0  0  0  0  0  0  0  0  0  0  0  0
  -23.3262    1.1019   -1.4268 C   0  0  2  0  0  0  0  0  0  0  0  0
  -23.3035    1.6137   -2.8497 C   0  0  2  0  0  0  0  0  0  0  0  0
  -22.1239    2.2969   -3.0555 F   0  0  0  0  0  0  0  0  0  0  0  0
  -24.4177    2.3445   -3.1279 F   0  0  0  0  0  0  0  0  0  0  0  0
  -23.2795    0.5505   -3.7519 F   0  0  0  0  0  0  0  0  0  0  0  0
  -22.1585    2.3352    0.4523 C   0  0  0  0  0  0  0  0  0  0  0  0
  -21.0120    1.5204    0.5855 N   0  0  0  0  0  0  0  0  0  0  0  0
  2  3  1  0
  3  4  1  0
  4  5  2  0
  5  6  1  0
  9 10  2  0
  4 12  1  0
  1 15  1  0
  2 15  1  0
 14 15  2  0
  7 16  1  0
  6 16  2  0
  7 17  1  1
  8 18  1  0
 17 18  1  0
  9 19  1  0
  8 19  2  0
  9 20  1  0
 10 21  1  0
 21 22  2  0
  8 22  1  0
 22 23  1  0
 11 23  1  6
 18 24  2  0
 12 25  2  0
 16 25  1  0
  3 26  2  0
 26 27  1  0
 13 28  1  6
 28 27  1  1
 28 29  1  0
 29 30  1  1
 29 31  1  0
 29 32  1  0
 27 33  1  0
  2 33  2  0
 33 34  1  0
M  END
$$$$
