
     RDKit          3D

 19 21  0  0  0  0  0  0  0  0999 V2000
  -10.1530   -6.7216   -2.4455 O   0  0  0  0  0  0  0  0  0  0  0  0
  -11.0747   -6.7433   -1.3552 C   0  0  0  0  0  0  0  0  0  0  0  0
  -12.5118   -6.8888   -1.8906 C   0  0  1  0  0  0  0  0  0  0  0  0
  -12.6402   -8.0194   -2.8436 N   0  0  0  0  0  0  0  0  0  0  0  0
  -13.5253   -7.2155   -0.7922 C   0  0  1  0  0  0  0  0  0  0  0  0
  -14.8396   -6.8510   -1.2315 O   0  0  0  0  0  0  0  0  0  0  0  0
  -13.3588   -8.7317   -0.6378 C   0  0  1  0  0  0  0  0  0  0  0  0
  -14.5143   -9.3627   -0.0940 O   0  0  0  0  0  0  0  0  0  0  0  0
  -13.0258   -9.2130   -2.0708 C   0  0  2  0  0  0  0  0  0  0  0  0
  -11.9779  -10.2914   -2.0804 C   0  0  0  0  0  0  0  0  0  0  0  0
  -11.0812  -10.6929   -1.0985 C   0  0  0  0  0  0  0  0  0  0  0  0
  -10.3094  -11.7149   -1.5983 N   0  0  0  0  0  0  0  0  0  0  0  0
  -10.6941  -11.9946   -2.8795 C   0  0  0  0  0  0  0  0  0  0  0  0
  -10.2652  -12.9070   -3.8085 C   0  0  0  0  0  0  0  0  0  0  0  0
   -9.2611  -13.7964   -3.5765 O   0  0  0  0  0  0  0  0  0  0  0  0
  -10.8347  -12.9626   -5.0134 N   0  0  0  0  0  0  0  0  0  0  0  0
  -11.8319  -12.0856   -5.2469 C   0  0  0  0  0  0  0  0  0  0  0  0
  -12.3381  -11.1543   -4.4147 N   0  0  0  0  0  0  0  0  0  0  0  0
  -11.7230  -11.1308   -3.2081 C   0  0  0  0  0  0  0  0  0  0  0  0
  1  2  1  0
  3  2  1  1
  3  4  1  0
  3  5  1  0
  5  6  1  6
  5  7  1  0
  7  8  1  6
  4  9  1  0
  7  9  1  0
  9 10  1  1
 10 11  4  0
 11 12  4  0
 12 13  4  0
 13 14  4  0
 14 15  1  0
 14 16  4  0
 16 17  4  0
 17 18  4  0
 10 19  4  0
 13 19  4  0
 18 19  4  0
M  END
