7NF3_4LU_A_603
     RDKit          3D

 36 39  0  0  0  0  0  0  0  0999 V2000
   11.1935   -7.9996   24.3090 C   0  0  0  0  0  0  0  0  0  0  0  0
   11.2602   -8.1951   25.6871 C   0  0  0  0  0  0  0  0  0  0  0  0
   11.7885   -7.2107   26.5211 C   0  0  0  0  0  0  0  0  0  0  0  0
   11.9103   -5.4587   21.7677 C   0  0  0  0  0  0  0  0  0  0  0  0
   12.2778   -6.0252   25.9253 C   0  0  0  0  0  0  0  0  0  0  0  0
   12.0979   -3.0224   20.7126 N   0  0  0  0  0  0  0  0  0  0  0  0
   11.7592   -4.0591   19.8995 C   0  0  0  0  0  0  0  0  0  0  0  0
   13.3018   -4.9648   28.1297 C   0  0  0  0  0  0  0  0  0  0  0  0
   12.8212   -4.7966   26.6916 C   0  0  1  0  0  0  0  0  0  0  0  0
   13.6287   -3.9148   24.5426 C   0  0  0  0  0  0  0  0  0  0  0  0
   11.3907   -3.8031   18.7610 O   0  0  0  0  0  0  0  0  0  0  0  0
   11.6689   -5.2920   20.4588 N   0  0  0  0  0  0  0  0  0  0  0  0
   12.4713   -3.1456   22.0263 C   0  0  0  0  0  0  0  0  0  0  0  0
   12.6996   -2.0844   22.6607 O   0  0  0  0  0  0  0  0  0  0  0  0
   12.3443   -4.4175   22.5791 C   0  0  0  0  0  0  0  0  0  0  0  0
   12.6825   -4.6953   23.9236 N   0  0  0  0  0  0  0  0  0  0  0  0
   14.0438   -4.3309   25.9042 C   0  0  0  0  0  0  0  0  0  0  0  0
   11.7667   -3.7039   26.6700 C   0  0  0  0  0  0  0  0  0  0  0  0
   12.2123   -5.8821   24.5212 C   0  0  0  0  0  0  0  0  0  0  0  0
   11.7591   -7.4643   28.0121 C   0  0  0  0  0  0  0  0  0  0  0  0
   10.8283   -9.5261   26.2542 C   0  0  0  0  0  0  0  0  0  0  0  0
   11.6716   -6.8321   23.7152 C   0  0  0  0  0  0  0  0  0  0  0  0
   11.6532   -6.6784   22.3024 N   0  0  0  0  0  0  0  0  0  0  0  0
   11.4007   -7.8065   21.3857 C   0  0  0  0  0  0  0  0  0  0  0  0
   10.6407   -7.4966   20.1343 C   0  0  2  0  0  0  0  0  0  0  0  0
    9.2510   -7.3807   20.3976 O   0  0  0  0  0  0  0  0  0  0  0  0
   10.8574   -8.5742   19.0949 C   0  0  2  0  0  0  0  0  0  0  0  0
   12.1705   -8.3297   18.5149 O   0  0  0  0  0  0  0  0  0  0  0  0
    9.8161   -8.5639   17.9873 C   0  0  2  0  0  0  0  0  0  0  0  0
   10.5112   -8.7195   16.7348 O   0  0  0  0  0  0  0  0  0  0  0  0
    8.9712   -7.3248   17.9444 C   0  0  0  0  0  0  0  0  0  0  0  0
    7.8385   -7.5539   17.0377 O   0  0  0  0  0  0  0  0  0  0  0  0
    8.0625   -7.5123   15.4476 P   0  0  1  0  0  0  0  0  0  0  0  0
    7.4750   -8.8483   15.0014 O   0  0  0  0  0  0  0  0  0  0  0  0
    7.3727   -6.3144   14.9191 O   0  0  0  0  0  0  0  0  0  0  0  0
    9.5640   -7.4805   15.2376 O   0  0  0  0  0  0  0  0  0  0  0  0
  1  2  2  0
  2  3  1  0
  3  5  2  0
  6  7  1  0
  9  8  1  1
  5  9  1  0
  7 11  2  0
  4 12  1  0
  7 12  1  0
  6 13  1  0
 13 14  2  0
  4 15  2  0
 13 15  1  0
 10 16  2  0
 15 16  1  0
  9 17  1  0
 10 17  1  0
  9 18  1  0
  5 19  1  0
 16 19  1  0
  3 20  1  0
  2 21  1  0
  1 22  1  0
 19 22  2  0
 22 23  1  0
  4 23  1  0
 23 24  1  0
 24 25  1  0
 25 26  1  1
 25 27  1  0
 27 28  1  6
 27 29  1  0
 29 30  1  6
 29 31  1  0
 31 32  1  0
 32 33  1  0
 33 34  2  0
 33 35  1  6
 33 36  1  0
M  CHG  1  16   1
M  END
