7Q19_DSM_AAA_201
     RDKit          3D

 20 22  0  0  0  0  0  0  0  0999 V2000
   -3.8278   48.1688   18.1449 C   0  0  0  0  0  0  0  0  0  0  0  0
   -5.2517   48.0330   17.8289 N   0  0  0  0  0  0  0  0  0  0  0  0
   -6.1590   48.3666   18.9269 C   0  0  0  0  0  0  0  0  0  0  0  0
   -7.6388   48.3112   18.5416 C   0  0  0  0  0  0  0  0  0  0  0  0
   -8.4848   48.4493   19.7778 C   0  0  0  0  0  0  0  0  0  0  0  0
   -9.8796   48.1040   19.5635 N   0  0  0  0  0  0  0  0  0  0  0  0
  -10.6617   47.7773   20.7180 C   0  0  0  0  0  0  0  0  0  0  0  0
  -10.2488   48.1894   21.9795 C   0  0  0  0  0  0  0  0  0  0  0  0
  -11.0046   47.8860   23.1001 C   0  0  0  0  0  0  0  0  0  0  0  0
  -12.1646   47.1672   22.9752 C   0  0  0  0  0  0  0  0  0  0  0  0
  -12.5784   46.7413   21.7299 C   0  0  0  0  0  0  0  0  0  0  0  0
  -11.8356   47.0175   20.5861 C   0  0  0  0  0  0  0  0  0  0  0  0
  -12.4352   46.4367   19.3126 C   0  0  0  0  0  0  0  0  0  0  0  0
  -11.6592   46.6055   18.0501 C   0  0  0  0  0  0  0  0  0  0  0  0
  -11.4321   48.0538   17.7356 C   0  0  0  0  0  0  0  0  0  0  0  0
  -10.5471   48.7938   18.5130 C   0  0  0  0  0  0  0  0  0  0  0  0
  -12.0686   48.6674   16.6642 C   0  0  0  0  0  0  0  0  0  0  0  0
  -11.8083   49.9951   16.3785 C   0  0  0  0  0  0  0  0  0  0  0  0
  -10.9026   50.7148   17.1438 C   0  0  0  0  0  0  0  0  0  0  0  0
  -10.2674   50.1198   18.2183 C   0  0  0  0  0  0  0  0  0  0  0  0
  1  2  1  0
  2  3  1  0
  3  4  1  0
  4  5  1  0
  5  6  1  0
  6  7  1  0
  7  8  2  0
  8  9  1  0
  9 10  2  0
 10 11  1  0
  7 12  1  0
 11 12  2  0
 12 13  1  0
 13 14  1  0
 14 15  1  0
  6 16  1  0
 15 16  2  0
 15 17  1  0
 17 18  2  0
 18 19  1  0
 16 20  1  0
 19 20  2  0
M  END
