1SQN_NDR_B_2001
     RDKit          3D

 22 25  0  0  0  0  0  0  0  0999 V2000
   13.1076   16.7498   28.5350 O   0  0  0  0  0  0  0  0  0  0  0  0
   13.7989   17.7598   28.2451 C   0  0  0  0  0  0  0  0  0  0  0  0
   13.2544   18.9269   27.4919 C   0  0  0  0  0  0  0  0  0  0  0  0
   15.1977   17.8336   28.6436 C   0  0  0  0  0  0  0  0  0  0  0  0
   16.0283   18.5361   27.8907 C   0  0  0  0  0  0  0  0  0  0  0  0
   17.4583   18.6199   28.2855 C   0  0  0  0  0  0  0  0  0  0  0  0
   15.6192   19.2545   26.6622 C   0  0  2  0  0  0  0  0  0  0  0  0
   14.1761   19.2241   26.3596 C   0  0  0  0  0  0  0  0  0  0  0  0
   16.5143   18.6979   25.5635 C   0  0  2  0  0  0  0  0  0  0  0  0
   17.8813   19.2265   25.8815 C   0  0  1  0  0  0  0  0  0  0  0  0
   18.3839   18.4947   27.1051 C   0  0  0  0  0  0  0  0  0  0  0  0
   15.9833   19.0359   24.2109 C   0  0  0  0  0  0  0  0  0  0  0  0
   17.0066   19.0174   23.1208 C   0  0  0  0  0  0  0  0  0  0  0  0
   18.2258   19.7567   23.5467 C   0  0  2  0  0  0  0  0  0  0  0  0
   18.7925   19.0049   24.7367 C   0  0  1  0  0  0  0  0  0  0  0  0
   17.8737   21.1788   23.8866 C   0  0  0  0  0  0  0  0  0  0  0  0
   19.3582   19.7144   22.5821 C   0  0  1  0  0  0  0  0  0  0  0  0
   19.4681   20.9488   21.9465 O   0  0  0  0  0  0  0  0  0  0  0  0
   20.6344   19.5405   23.4136 C   0  0  0  0  0  0  0  0  0  0  0  0
   20.1515   19.5916   24.8609 C   0  0  0  0  0  0  0  0  0  0  0  0
   19.2370   18.6682   21.5738 C   0  0  0  0  0  0  0  0  0  0  0  0
   19.1265   17.8221   20.7422 C   0  0  0  0  0  0  0  0  0  0  0  0
  1  2  2  0
  2  3  1  0
  2  4  1  0
  4  5  2  0
  5  6  1  0
  5  7  1  0
  3  8  1  0
  7  8  1  6
  7  9  1  0
  9 10  1  0
  6 11  1  0
 10 11  1  1
  9 12  1  6
 12 13  1  0
 13 14  1  0
 10 15  1  0
 14 15  1  0
 14 16  1  1
 14 17  1  0
 17 18  1  6
 17 19  1  0
 15 20  1  1
 19 20  1  0
 17 21  1  0
 21 22  3  0
M  END
$$$$
