1SQN_NDR_B_2001
     RDKit          3D

 22 25  0  0  0  0  0  0  0  0999 V2000
   -4.3296   -0.7891   30.1232 O   0  0  0  0  0  0  0  0  0  0  0  0
   -3.7008    0.1672   29.6018 C   0  0  0  0  0  0  0  0  0  0  0  0
   -4.2634    1.5446   29.4920 C   0  0  0  0  0  0  0  0  0  0  0  0
   -2.3607   -0.0361   29.0691 C   0  0  0  0  0  0  0  0  0  0  0  0
   -1.9640    0.7243   28.0618 C   0  0  0  0  0  0  0  0  0  0  0  0
   -0.5990    0.5277   27.5084 C   0  0  0  0  0  0  0  0  0  0  0  0
   -2.8042    1.7738   27.4411 C   0  0  2  0  0  0  0  0  0  0  0  0
   -4.1134    2.0001   28.0813 C   0  0  0  0  0  0  0  0  0  0  0  0
   -2.8699    1.4046   25.9654 C   0  0  2  0  0  0  0  0  0  0  0  0
   -1.4866    1.6620   25.4464 C   0  0  1  0  0  0  0  0  0  0  0  0
   -0.5793    0.5894   26.0045 C   0  0  0  0  0  0  0  0  0  0  0  0
   -3.9717    2.1354   25.2742 C   0  0  0  0  0  0  0  0  0  0  0  0
   -3.7973    2.2646   23.7948 C   0  0  0  0  0  0  0  0  0  0  0  0
   -2.4152    2.7154   23.4769 C   0  0  2  0  0  0  0  0  0  0  0  0
   -1.4819    1.6240   23.9671 C   0  0  1  0  0  0  0  0  0  0  0  0
   -2.1404    4.0387   24.1367 C   0  0  0  0  0  0  0  0  0  0  0  0
   -2.0899    2.7767   22.0260 C   0  0  1  0  0  0  0  0  0  0  0  0
   -2.0567    4.1078   21.6173 O   0  0  0  0  0  0  0  0  0  0  0  0
   -0.6609    2.2420   21.8756 C   0  0  0  0  0  0  0  0  0  0  0  0
   -0.2008    1.9870   23.3087 C   0  0  0  0  0  0  0  0  0  0  0  0
   -3.0219    2.0413   21.1797 C   0  0  0  0  0  0  0  0  0  0  0  0
   -3.7803    1.4266   20.4965 C   0  0  0  0  0  0  0  0  0  0  0  0
  1  2  2  0
  2  3  1  0
  2  4  1  0
  4  5  2  0
  5  6  1  0
  5  7  1  0
  3  8  1  0
  7  8  1  1
  7  9  1  0
  9 10  1  0
  6 11  1  0
 10 11  1  1
  9 12  1  6
 12 13  1  0
 13 14  1  0
 10 15  1  0
 14 15  1  0
 14 16  1  1
 14 17  1  0
 17 18  1  6
 17 19  1  0
 15 20  1  6
 19 20  1  0
 17 21  1  0
 21 22  3  0
M  END
$$$$
