1SQN_NDR_B_2001
     RDKit          3D

 22 25  0  0  0  0  0  0  0  0999 V2000
   22.9160    9.4110   26.0248 O   0  0  0  0  0  0  0  0  0  0  0  0
   21.8991    9.5699   25.3019 C   0  0  0  0  0  0  0  0  0  0  0  0
   21.1562    8.4326   24.6850 C   0  0  0  0  0  0  0  0  0  0  0  0
   21.3909   10.9073   25.0297 C   0  0  0  0  0  0  0  0  0  0  0  0
   20.7599   11.1179   23.8862 C   0  0  0  0  0  0  0  0  0  0  0  0
   20.2361   12.4778   23.5954 C   0  0  0  0  0  0  0  0  0  0  0  0
   20.5384   10.0712   22.8625 C   0  0  2  0  0  0  0  0  0  0  0  0
   20.9891    8.7164   23.2318 C   0  0  0  0  0  0  0  0  0  0  0  0
   21.1615   10.6269   21.5893 C   0  0  2  0  0  0  0  0  0  0  0  0
   20.2611   11.7564   21.1860 C   0  0  1  0  0  0  0  0  0  0  0  0
   20.4745   12.8869   22.1666 C   0  0  0  0  0  0  0  0  0  0  0  0
   21.3575    9.5544   20.5710 C   0  0  0  0  0  0  0  0  0  0  0  0
   21.4482   10.0464   19.1620 C   0  0  0  0  0  0  0  0  0  0  0  0
   20.3555   11.0177   18.8847 C   0  0  2  0  0  0  0  0  0  0  0  0
   20.5822   12.1982   19.8107 C   0  0  1  0  0  0  0  0  0  0  0  0
   19.0183   10.3667   19.1086 C   0  0  0  0  0  0  0  0  0  0  0  0
   20.4069   11.6588   17.5426 C   0  0  1  0  0  0  0  0  0  0  0  0
   19.4156   11.1108   16.7322 O   0  0  0  0  0  0  0  0  0  0  0  0
   20.0338   13.1316   17.7471 C   0  0  0  0  0  0  0  0  0  0  0  0
   19.6849   13.2299   19.2301 C   0  0  0  0  0  0  0  0  0  0  0  0
   21.6958   11.5275   16.8739 C   0  0  0  0  0  0  0  0  0  0  0  0
   22.7459   11.4337   16.3186 C   0  0  0  0  0  0  0  0  0  0  0  0
  1  2  2  0
  2  3  1  0
  2  4  1  0
  4  5  2  0
  5  6  1  0
  5  7  1  0
  3  8  1  0
  7  8  1  1
  7  9  1  0
  9 10  1  0
  6 11  1  0
 10 11  1  1
  9 12  1  6
 12 13  1  0
 13 14  1  0
 10 15  1  0
 14 15  1  0
 14 16  1  1
 14 17  1  0
 17 18  1  6
 17 19  1  0
 15 20  1  6
 19 20  1  0
 17 21  1  0
 21 22  3  0
M  END
$$$$
