1HQ2_PH2_A_181
     RDKit          3D

 14 15  0  0  0  0  0  0  0  0999 V2000
   -7.3696    7.0424   17.7164 N   0  0  0  0  0  0  0  0  0  0  0  0
   -7.2295    7.1485   18.9945 C   0  0  0  0  0  0  0  0  0  0  0  0
   -8.0091    8.1311   19.8113 C   0  0  0  0  0  0  0  0  0  0  0  0
   -8.9025    8.9049   18.9727 N   0  0  0  0  0  0  0  0  0  0  0  0
   -9.8633    9.4884   16.8178 N   0  0  0  0  0  0  0  0  0  0  0  0
   -9.9386    9.3002   15.4702 C   0  0  0  0  0  0  0  0  0  0  0  0
  -10.8313   10.0841   14.6859 N   0  0  0  0  0  0  0  0  0  0  0  0
   -9.1612    8.3607   14.8591 N   0  0  0  0  0  0  0  0  0  0  0  0
   -8.3017    7.6011   15.5890 C   0  0  0  0  0  0  0  0  0  0  0  0
   -7.5843    6.7320   15.0143 O   0  0  0  0  0  0  0  0  0  0  0  0
   -8.2484    7.8137   16.9428 C   0  0  0  0  0  0  0  0  0  0  0  0
   -9.0239    8.7568   17.5826 C   0  0  0  0  0  0  0  0  0  0  0  0
   -6.2684    6.2905   19.7673 C   0  0  0  0  0  0  0  0  0  0  0  0
   -6.0776    5.0732   19.1198 O   0  0  0  0  0  0  0  0  0  0  0  0
  1  2  2  0
  2  3  1  0
  3  4  1  1
  5  6  2  0
  6  7  1  0
  6  8  1  0
  8  9  1  0
  9 10  2  0
  1 11  1  0
  9 11  1  0
  4 12  1  0
  5 12  1  0
 11 12  2  0
  2 13  1  0
 13 14  1  1
M  END
$$$$
