1V4S_MRK_A_501
     RDKit          3D

 23 25  0  0  0  0  0  0  0  0999 V2000
   28.4872    2.8013   68.2243 S   0  0  0  0  0  0  0  0  0  0  0  0
   26.9657    2.9332   69.0307 C   0  0  0  0  0  0  0  0  0  0  0  0
   26.0777    3.5952   68.2333 C   0  0  0  0  0  0  0  0  0  0  0  0
   26.5653    3.9965   67.0144 N   0  0  0  0  0  0  0  0  0  0  0  0
   27.8485    3.6381   66.8706 C   0  0  0  0  0  0  0  0  0  0  0  0
   28.5309    3.9299   65.7238 N   0  0  0  0  0  0  0  0  0  0  0  0
   28.5141    3.2210   64.4715 C   0  0  0  0  0  0  0  0  0  0  0  0
   27.9562    2.1204   64.3628 O   0  0  0  0  0  0  0  0  0  0  0  0
   29.6307    3.2156   62.0176 C   0  0  0  0  0  0  0  0  0  0  0  0
   29.1950    3.8633   63.2433 C   0  0  0  0  0  0  0  0  0  0  0  0
   29.4020    5.2859   63.3517 C   0  0  0  0  0  0  0  0  0  0  0  0
   30.0063    6.0221   62.3126 C   0  0  0  0  0  0  0  0  0  0  0  0
   30.4308    5.3721   61.1197 C   0  0  0  0  0  0  0  0  0  0  0  0
   31.0203    6.0572   60.0946 F   0  0  0  0  0  0  0  0  0  0  0  0
   30.2385    3.9742   60.9843 C   0  0  0  0  0  0  0  0  0  0  0  0
   30.1953    7.7587   62.5646 S   0  0  0  0  0  0  0  0  0  0  0  0
   31.9218    9.0888   60.9528 N   0  0  0  0  0  0  0  0  0  0  0  0
   31.7912    8.3452   62.1190 C   0  0  0  0  0  0  0  0  0  0  0  0
   32.8999    8.0878   62.8929 N   0  0  0  0  0  0  0  0  0  0  0  0
   33.8557    8.7462   62.1319 C   0  0  0  0  0  0  0  0  0  0  0  0
   33.2866    9.3327   60.9972 C   0  0  0  0  0  0  0  0  0  0  0  0
   30.9060    9.4999   59.9573 C   0  0  0  0  0  0  0  0  0  0  0  0
   29.4896    1.9069   61.7897 N   0  0  0  0  0  0  0  0  0  0  0  0
  1  2  1  0
  2  3  2  0
  3  4  1  0
  1  5  1  0
  4  5  2  0
  5  6  1  0
  6  7  1  0
  7  8  2  0
  7 10  1  0
  9 10  2  0
 10 11  1  0
 11 12  2  0
 12 13  1  0
 13 14  1  0
  9 15  1  0
 13 15  2  0
 12 16  1  0
 16 18  1  0
 17 18  1  0
 18 19  2  0
 19 20  1  0
 17 21  1  0
 20 21  2  0
 17 22  1  0
  9 23  1  0
M  END
