7UJF_R3V_C_601
     RDKit          3D

 32 36  0  0  0  0  0  0  0  0999 V2000
   -2.8480  -13.4890  -67.6150 C   0  0  0  0  0  0  0  0  0  0  0  0
   -1.9830  -13.0600  -68.7530 C   0  0  1  0  0  0  0  0  0  0  0  0
   -1.3630  -14.3130  -69.4350 C   0  0  0  0  0  0  0  0  0  0  0  0
   -2.8520  -12.3200  -69.6650 C   0  0  0  0  0  0  0  0  0  0  0  0
   -4.0670  -11.9190  -68.8040 C   0  0  0  0  0  0  0  0  0  0  0  0
   -3.6530  -12.2980  -67.4500 N   0  0  0  0  0  0  0  0  0  0  0  0
   -4.7310  -12.5390  -66.5910 C   0  0  0  0  0  0  0  0  0  0  0  0
   -4.2250  -12.6700  -65.1430 C   0  0  0  0  0  0  0  0  0  0  0  0
   -4.0520  -14.0630  -64.8840 O   0  0  0  0  0  0  0  0  0  0  0  0
   -3.4370  -14.4350  -63.6490 C   0  0  0  0  0  0  0  0  0  0  0  0
   -2.3310  -15.4840  -63.6190 C   0  0  0  0  0  0  0  0  0  0  0  0
   -1.7340  -15.8490  -62.4290 C   0  0  0  0  0  0  0  0  0  0  0  0
   -3.8730  -13.8480  -62.4970 C   0  0  0  0  0  0  0  0  0  0  0  0
   -3.2110  -14.2670  -61.1860 C   0  0  0  0  0  0  0  0  0  0  0  0
   -2.2170  -15.2150  -61.1400 C   0  0  0  0  0  0  0  0  0  0  0  0
   -1.5980  -15.5650  -59.7960 C   0  0  2  0  0  0  0  0  0  0  0  0
   -0.1800  -15.5470  -59.9990 C   0  0  0  0  0  0  0  0  0  0  0  0
    0.4070  -14.1800  -60.3110 C   0  0  0  0  0  0  0  0  0  0  0  0
    1.7720  -14.1260  -60.5190 C   0  0  0  0  0  0  0  0  0  0  0  0
    2.6460  -15.3800  -60.4450 C   0  0  0  0  0  0  0  0  0  0  0  0
    4.0140  -15.2790  -60.6980 O   0  0  0  0  0  0  0  0  0  0  0  0
    2.1230  -16.6170  -60.1380 C   0  0  0  0  0  0  0  0  0  0  0  0
    0.6210  -16.6150  -59.9490 C   0  0  0  0  0  0  0  0  0  0  0  0
    0.2700  -18.0990  -59.6550 C   0  0  0  0  0  0  0  0  0  0  0  0
   -1.2480  -18.1270  -59.9760 C   0  0  0  0  0  0  0  0  0  0  0  0
   -1.9740  -16.9300  -59.3170 C   0  0  2  0  0  0  0  0  0  0  0  0
   -3.5000  -17.1090  -59.4160 C   0  0  0  0  0  0  0  0  0  0  0  0
   -4.0790  -17.6720  -60.5370 C   0  0  0  0  0  0  0  0  0  0  0  0
   -5.4600  -17.8270  -60.6080 C   0  0  0  0  0  0  0  0  0  0  0  0
   -6.2490  -17.4170  -59.5360 C   0  0  0  0  0  0  0  0  0  0  0  0
   -5.6710  -16.8620  -58.4080 C   0  0  0  0  0  0  0  0  0  0  0  0
   -4.2900  -16.7050  -58.3400 C   0  0  0  0  0  0  0  0  0  0  0  0
  1  2  1  0
  2  3  1  6
  2  4  1  0
  4  5  1  0
  1  6  1  0
  5  6  1  0
  6  7  1  0
  7  8  1  0
  8  9  1  0
  9 10  1  0
 10 11  2  0
 11 12  1  0
 10 13  1  0
 13 14  2  0
 14 15  1  0
 12 15  2  0
 16 15  1  6
 16 17  1  0
 17 18  2  0
 18 19  1  0
 19 20  2  0
 20 21  1  0
 20 22  1  0
 17 23  1  0
 22 23  2  0
 23 24  1  0
 24 25  1  0
 16 26  1  0
 25 26  1  0
 26 27  1  6
 27 28  2  0
 28 29  1  0
 29 30  2  0
 30 31  1  0
 31 32  2  0
 27 32  1  0
M  END
$$$$
