7B94_ANP_B_401
     RDKit          3D

 31 33  0  0  0  0  0  0  0  0999 V2000
  -29.5089    1.7057   -3.4084 P   0  0  2  0  0  5  0  0  0  0  0  0
  -29.4350    2.6018   -4.6189 O   0  0  0  0  0  0  0  0  0  0  0  0
  -31.0398    1.7649   -2.6749 O   0  0  0  0  0  0  0  0  0  0  0  0
  -28.3265    2.1398   -2.3076 O   0  0  0  0  0  0  0  0  0  0  0  0
  -28.1049    0.1278   -5.3192 P   0  0  2  0  0  5  0  0  0  0  0  0
  -26.9712   -0.8802   -5.1407 O   0  0  0  0  0  0  0  0  0  0  0  0
  -27.3934    1.6340   -5.4620 O   0  0  0  0  0  0  0  0  0  0  0  0
  -29.1815    0.0807   -3.9567 N   0  0  0  0  0  0  0  0  0  0  0  0
  -30.5945   -0.2056   -6.5345 P   0  0  2  0  0  5  0  0  0  0  0  0
  -30.9368    1.2640   -6.6278 O   0  0  0  0  0  0  0  0  0  0  0  0
  -30.9494   -0.7547   -4.9861 O   0  0  0  0  0  0  0  0  0  0  0  0
  -28.9213   -0.3445   -6.7418 O   0  0  0  0  0  0  0  0  0  0  0  0
  -31.3476   -1.0934   -7.7405 O   0  0  0  0  0  0  0  0  0  0  0  0
  -31.2543   -2.4491   -7.6051 C   0  0  0  0  0  0  0  0  0  0  0  0
  -31.9302   -3.2064   -8.7398 C   0  0  1  0  0  0  0  0  0  0  0  0
  -32.9384   -2.3986   -9.2307 O   0  0  0  0  0  0  0  0  0  0  0  0
  -30.8934   -3.3752   -9.8313 C   0  0  1  0  0  0  0  0  0  0  0  0
  -31.0027   -4.5944  -10.4821 O   0  0  0  0  0  0  0  0  0  0  0  0
  -31.3375   -2.2613  -10.7856 C   0  0  1  0  0  0  0  0  0  0  0  0
  -30.9247   -2.4670  -12.0800 O   0  0  0  0  0  0  0  0  0  0  0  0
  -32.8517   -2.4250  -10.6128 C   0  0  2  0  0  0  0  0  0  0  0  0
  -33.5912   -1.3661  -11.2114 N   0  0  0  0  0  0  0  0  0  0  0  0
  -33.5432   -0.0780  -10.7781 C   0  0  0  0  0  0  0  0  0  0  0  0
  -34.3557    0.6703  -11.5565 N   0  0  0  0  0  0  0  0  0  0  0  0
  -34.9223   -0.0989  -12.4745 C   0  0  0  0  0  0  0  0  0  0  0  0
  -35.8209    0.1800  -13.4946 C   0  0  0  0  0  0  0  0  0  0  0  0
  -36.3074    1.4999  -13.7073 N   0  0  0  0  0  0  0  0  0  0  0  0
  -36.1973   -0.8702  -14.2612 N   0  0  0  0  0  0  0  0  0  0  0  0
  -35.7258   -2.1123  -14.0443 C   0  0  0  0  0  0  0  0  0  0  0  0
  -34.8527   -2.4068  -13.0599 N   0  0  0  0  0  0  0  0  0  0  0  0
  -34.4423   -1.3945  -12.2627 C   0  0  0  0  0  0  0  0  0  0  0  0
  1  2  2  0
  1  3  1  1
  1  4  1  0
  5  6  2  0
  5  7  1  6
  1  8  1  0
  5  8  1  0
  9 10  2  0
  9 11  1  1
  5 12  1  0
  9 12  1  0
  9 13  1  0
 14 13  1  6
 15 14  1  0
 15 16  1  6
 15 17  1  0
 17 18  1  6
 17 19  1  0
 19 20  1  6
 16 21  1  0
 19 21  1  0
 21 22  1  6
 22 23  1  0
 23 24  2  0
 24 25  1  0
 25 26  2  0
 26 27  1  0
 26 28  1  0
 28 29  2  0
 29 30  1  0
 22 31  1  0
 25 31  1  0
 30 31  2  0
M  END
$$$$
