6YYO_Q1K_BBB_323
     RDKit          3D

 19 21  0  0  0  0  0  0  0  0999 V2000
   14.6780   17.4620   22.1400 C   0  0  0  0  0  0  0  0  0  0  0  0
   11.9770   21.4740   23.0700 C   0  0  0  0  0  0  0  0  0  0  0  0
   11.7310   19.6160   24.5750 C   0  0  0  0  0  0  0  0  0  0  0  0
   13.2870   20.9390   22.5960 C   0  0  0  0  0  0  0  0  0  0  0  0
   13.0010   18.9960   23.9770 C   0  0  0  0  0  0  0  0  0  0  0  0
   15.6760   16.8440   21.4030 C   0  0  0  0  0  0  0  0  0  0  0  0
   14.3030   18.7970   21.9080 C   0  0  0  0  0  0  0  0  0  0  0  0
   16.4930   19.4840   19.3470 C   0  0  0  0  0  0  0  0  0  0  0  0
   11.4390   23.2330   25.2210 O   0  0  0  0  0  0  0  0  0  0  0  0
   10.9310   21.9330   25.4720 S   0  0  0  0  0  0  0  0  0  0  0  0
   11.0310   21.2810   26.7010 O   0  0  0  0  0  0  0  0  0  0  0  0
    9.2800   21.9610   24.7790 C   0  0  0  0  0  0  0  0  0  0  0  0
   11.8800   21.0850   24.5190 N   0  0  0  0  0  0  0  0  0  0  0  0
   13.3280   19.5020   22.6230 N   0  0  0  0  0  0  0  0  0  0  0  0
   14.9170   19.5920   20.9540 N   0  0  0  0  0  0  0  0  0  0  0  0
   16.2230   17.6990   20.4860 C   0  0  0  0  0  0  0  0  0  0  0  0
   17.2270   17.4080   19.6830 N   0  0  0  0  0  0  0  0  0  0  0  0
   17.3310   18.4960   18.9600 N   0  0  0  0  0  0  0  0  0  0  0  0
   15.8310   18.9500   20.3710 N   0  0  0  0  0  0  0  0  0  0  0  0
  2  4  1  0
  3  5  1  0
  1  6  2  0
  1  7  1  0
  9 10  2  0
 10 11  2  0
 10 12  1  0
  2 13  1  0
 10 13  1  0
  3 13  1  0
  4 14  1  0
  7 14  1  0
  5 14  1  0
  7 15  2  0
  6 16  1  0
 16 17  2  0
  8 18  2  0
 17 18  1  0
  8 19  1  0
 15 19  1  0
 16 19  1  0
M  END
$$$$
6YYO_Q1K_AAA_317
     RDKit          3D

 19 21  0  0  0  0  0  0  0  0999 V2000
   13.4000   15.0990   19.2630 C   0  0  0  0  0  0  0  0  0  0  0  0
   15.7540   10.8520   18.6390 C   0  0  0  0  0  0  0  0  0  0  0  0
   13.6460   10.9580   19.7240 C   0  0  0  0  0  0  0  0  0  0  0  0
   15.5410   12.2380   18.1320 C   0  0  0  0  0  0  0  0  0  0  0  0
   13.3120   12.3160   19.1400 C   0  0  0  0  0  0  0  0  0  0  0  0
   13.2190   16.4240   18.9620 C   0  0  0  0  0  0  0  0  0  0  0  0
   14.4360   14.3860   18.6710 C   0  0  0  0  0  0  0  0  0  0  0  0
   15.7730   17.1810   16.7860 C   0  0  0  0  0  0  0  0  0  0  0  0
   15.2800    8.1510   17.7520 O   0  0  0  0  0  0  0  0  0  0  0  0
   14.4290    8.6230   18.8050 S   0  0  0  0  0  0  0  0  0  0  0  0
   13.0220    8.2300   18.7950 O   0  0  0  0  0  0  0  0  0  0  0  0
   15.2390    8.0600   20.2890 C   0  0  0  0  0  0  0  0  0  0  0  0
   14.4610   10.2180   18.6930 N   0  0  0  0  0  0  0  0  0  0  0  0
   14.6020   13.0650   18.9150 N   0  0  0  0  0  0  0  0  0  0  0  0
   15.3520   15.0360   17.8080 N   0  0  0  0  0  0  0  0  0  0  0  0
   14.1520   16.9970   18.1300 C   0  0  0  0  0  0  0  0  0  0  0  0
   14.1270   18.2330   17.6500 N   0  0  0  0  0  0  0  0  0  0  0  0
   15.1000   18.3370   16.8620 N   0  0  0  0  0  0  0  0  0  0  0  0
   15.1160   16.2770   17.5720 N   0  0  0  0  0  0  0  0  0  0  0  0
  2  4  1  0
  3  5  1  0
  1  6  2  0
  1  7  1  0
  9 10  2  0
 10 11  2  0
 10 12  1  0
  2 13  1  0
 10 13  1  0
  3 13  1  0
  4 14  1  0
  7 14  1  0
  5 14  1  0
  7 15  2  0
  6 16  1  0
 16 17  2  0
  8 18  2  0
 17 18  1  0
  8 19  1  0
 15 19  1  0
 16 19  1  0
M  END
$$$$
