6ZT2_QPK_A_303
     RDKit          3D

 10 10  0  0  0  0  0  0  0  0999 V2000
   -6.3467   29.4678  -10.1542 C   0  0  0  0  0  0  0  0  0  0  0  0
   -7.1190   29.8244  -11.2623 C   0  0  0  0  0  0  0  0  0  0  0  0
   -7.4930   31.1387  -11.4904 C   0  0  0  0  0  0  0  0  0  0  0  0
   -7.0783   32.1164  -10.5796 C   0  0  0  0  0  0  0  0  0  0  0  0
   -6.3113   31.7877   -9.4723 C   0  0  0  0  0  0  0  0  0  0  0  0
   -5.9474   30.4540   -9.2652 C   0  0  0  0  0  0  0  0  0  0  0  0
   -7.4728   33.4358  -10.8383 O   0  0  0  0  0  0  0  0  0  0  0  0
   -5.9186   32.7612   -8.5969 F   0  0  0  0  0  0  0  0  0  0  0  0
   -8.2381   31.4976  -12.5553 F   0  0  0  0  0  0  0  0  0  0  0  0
   -7.6601   28.6366  -12.4269 Cl  0  0  0  0  0  0  0  0  0  0  0  0
  1  2  2  0
  2  3  1  0
  3  4  2  0
  4  5  1  0
  1  6  1  0
  5  6  2  0
  4  7  1  0
  5  8  1  0
  3  9  1  0
  2 10  1  0
M  END
$$$$
