1R9O_FLP_A_501
     RDKit          3D

 18 19  0  0  0  0  0  0  0  0999 V2000
  -13.9149   41.8475   -5.3678 C   0  0  0  0  0  0  0  0  0  0  0  0
  -12.9502   42.1662   -4.4273 C   0  0  0  0  0  0  0  0  0  0  0  0
  -11.6011   41.9482   -4.7214 C   0  0  0  0  0  0  0  0  0  0  0  0
  -11.2083   41.4164   -5.9425 C   0  0  0  0  0  0  0  0  0  0  0  0
  -12.2069   41.1110   -6.8565 C   0  0  0  0  0  0  0  0  0  0  0  0
  -13.5471   41.3174   -6.5891 C   0  0  0  0  0  0  0  0  0  0  0  0
  -10.5637   42.2855   -3.7235 C   0  0  0  0  0  0  0  0  0  0  0  0
   -9.3305   42.7895   -4.1195 C   0  0  0  0  0  0  0  0  0  0  0  0
   -8.3583   43.1049   -3.1751 C   0  0  0  0  0  0  0  0  0  0  0  0
   -8.6104   42.9193   -1.8275 C   0  0  0  0  0  0  0  0  0  0  0  0
   -9.8500   42.4125   -1.4275 C   0  0  0  0  0  0  0  0  0  0  0  0
  -10.8131   42.0999   -2.3615 C   0  0  0  0  0  0  0  0  0  0  0  0
   -7.5663   43.2581   -0.8154 C   0  0  2  0  0  0  0  0  0  0  0  0
   -6.7160   42.0198   -0.6651 C   0  0  0  0  0  0  0  0  0  0  0  0
   -8.2056   43.6626    0.4476 C   0  0  0  0  0  0  0  0  0  0  0  0
   -8.6437   42.7957    1.2433 O   0  0  0  0  0  0  0  0  0  0  0  0
   -8.3138   45.0019    0.7386 O   0  0  0  0  0  0  0  0  0  0  0  0
  -12.0336   41.6013   -1.9715 F   0  0  0  0  0  0  0  0  0  0  0  0
  1  2  2  0
  2  3  1  0
  3  4  2  0
  4  5  1  0
  1  6  1  0
  5  6  2  0
  3  7  1  0
  7  8  2  0
  8  9  1  0
  9 10  2  0
 10 11  1  0
  7 12  1  0
 11 12  2  0
 10 13  1  0
 13 14  1  1
 13 15  1  0
 15 16  2  0
 15 17  1  0
 12 18  1  0
M  END
$$$$
