1R9O_FLP_A_501
     RDKit          3D

 18 19  0  0  0  0  0  0  0  0999 V2000
   18.8038   23.5826  -29.4811 C   0  0  0  0  0  0  0  0  0  0  0  0
   19.9737   22.9358  -29.1207 C   0  0  0  0  0  0  0  0  0  0  0  0
   21.2026   23.5732  -29.3146 C   0  0  0  0  0  0  0  0  0  0  0  0
   21.2732   24.8468  -29.8634 C   0  0  0  0  0  0  0  0  0  0  0  0
   20.0774   25.4593  -30.2107 C   0  0  0  0  0  0  0  0  0  0  0  0
   18.8503   24.8497  -30.0288 C   0  0  0  0  0  0  0  0  0  0  0  0
   22.4572   22.8905  -28.9328 C   0  0  0  0  0  0  0  0  0  0  0  0
   23.4607   23.5707  -28.2532 C   0  0  0  0  0  0  0  0  0  0  0  0
   24.6393   22.9222  -27.8968 C   0  0  0  0  0  0  0  0  0  0  0  0
   24.8246   21.5889  -28.2164 C   0  0  0  0  0  0  0  0  0  0  0  0
   23.8164   20.9034  -28.8998 C   0  0  0  0  0  0  0  0  0  0  0  0
   22.6493   21.5443  -29.2531 C   0  0  0  0  0  0  0  0  0  0  0  0
   26.0897   20.8946  -27.8333 C   0  0  2  0  0  0  0  0  0  0  0  0
   26.6949   20.3930  -29.1221 C   0  0  0  0  0  0  0  0  0  0  0  0
   25.7968   19.8075  -26.8846 C   0  0  0  0  0  0  0  0  0  0  0  0
   25.1390   18.8035  -27.2532 O   0  0  0  0  0  0  0  0  0  0  0  0
   26.2551   19.9116  -25.5926 O   0  0  0  0  0  0  0  0  0  0  0  0
   21.6556   20.8729  -29.9253 F   0  0  0  0  0  0  0  0  0  0  0  0
  1  2  2  0
  2  3  1  0
  3  4  2  0
  4  5  1  0
  1  6  1  0
  5  6  2  0
  3  7  1  0
  7  8  2  0
  8  9  1  0
  9 10  2  0
 10 11  1  0
  7 12  1  0
 11 12  2  0
 10 13  1  0
 13 14  1  6
 13 15  1  0
 15 16  2  0
 15 17  1  0
 12 18  1  0
M  END
$$$$
