1R9O_FLP_A_501
     RDKit          3D

 18 19  0  0  0  0  0  0  0  0999 V2000
   17.0895   27.4573  -31.6807 C   0  0  0  0  0  0  0  0  0  0  0  0
   16.9898   28.0862  -30.4513 C   0  0  0  0  0  0  0  0  0  0  0  0
   15.7472   28.5544  -30.0144 C   0  0  0  0  0  0  0  0  0  0  0  0
   14.6071   28.4006  -30.7919 C   0  0  0  0  0  0  0  0  0  0  0  0
   14.7510   27.7648  -32.0171 C   0  0  0  0  0  0  0  0  0  0  0  0
   15.9684   27.2934  -32.4708 C   0  0  0  0  0  0  0  0  0  0  0  0
   15.6309   29.2272  -28.7031 C   0  0  0  0  0  0  0  0  0  0  0  0
   14.3973   29.3599  -28.0767 C   0  0  0  0  0  0  0  0  0  0  0  0
   14.2946   29.9943  -26.8424 C   0  0  0  0  0  0  0  0  0  0  0  0
   15.4236   30.5012  -26.2239 C   0  0  0  0  0  0  0  0  0  0  0  0
   16.6650   30.3687  -26.8524 C   0  0  0  0  0  0  0  0  0  0  0  0
   16.7677   29.7408  -28.0743 C   0  0  0  0  0  0  0  0  0  0  0  0
   15.3118   31.1817  -24.8996 C   0  0  2  0  0  0  0  0  0  0  0  0
   15.3506   32.6628  -25.1890 C   0  0  0  0  0  0  0  0  0  0  0  0
   16.4094   30.7478  -24.0195 C   0  0  0  0  0  0  0  0  0  0  0  0
   17.4619   31.4274  -23.9352 O   0  0  0  0  0  0  0  0  0  0  0  0
   16.2613   29.5893  -23.2943 O   0  0  0  0  0  0  0  0  0  0  0  0
   17.9872   29.6087  -28.6952 F   0  0  0  0  0  0  0  0  0  0  0  0
  1  2  2  0
  2  3  1  0
  3  4  2  0
  4  5  1  0
  1  6  1  0
  5  6  2  0
  3  7  1  0
  7  8  2  0
  8  9  1  0
  9 10  2  0
 10 11  1  0
  7 12  1  0
 11 12  2  0
 10 13  1  0
 13 14  1  6
 13 15  1  0
 15 16  2  0
 15 17  1  0
 12 18  1  0
M  END
$$$$
