1R9O_FLP_A_501
     RDKit          3D

 18 19  0  0  0  0  0  0  0  0999 V2000
    0.5339   14.6410  -12.6927 C   0  0  0  0  0  0  0  0  0  0  0  0
    1.1389   13.5537  -12.0857 C   0  0  0  0  0  0  0  0  0  0  0  0
    2.5339   13.4716  -12.0493 C   0  0  0  0  0  0  0  0  0  0  0  0
    3.3274   14.4627  -12.6118 C   0  0  0  0  0  0  0  0  0  0  0  0
    2.6807   15.5350  -13.2101 C   0  0  0  0  0  0  0  0  0  0  0  0
    1.3034   15.6386  -13.2588 C   0  0  0  0  0  0  0  0  0  0  0  0
    3.1892   12.3144  -11.4033 C   0  0  0  0  0  0  0  0  0  0  0  0
    4.3049   12.4876  -10.5928 C   0  0  0  0  0  0  0  0  0  0  0  0
    4.9170   11.3941   -9.9877 C   0  0  0  0  0  0  0  0  0  0  0  0
    4.4193   10.1187  -10.1876 C   0  0  0  0  0  0  0  0  0  0  0  0
    3.2974    9.9427  -11.0024 C   0  0  0  0  0  0  0  0  0  0  0  0
    2.6907   11.0246  -11.6018 C   0  0  0  0  0  0  0  0  0  0  0  0
    5.0771    8.9464   -9.5377 C   0  0  2  0  0  0  0  0  0  0  0  0
    5.0142    7.8237  -10.5449 C   0  0  0  0  0  0  0  0  0  0  0  0
    4.3861    8.6181   -8.2799 C   0  0  0  0  0  0  0  0  0  0  0  0
    4.9833    8.7263   -7.1806 O   0  0  0  0  0  0  0  0  0  0  0  0
    3.0799    8.1925   -8.3308 O   0  0  0  0  0  0  0  0  0  0  0  0
    1.5869   10.8550  -12.4038 F   0  0  0  0  0  0  0  0  0  0  0  0
  1  2  2  0
  2  3  1  0
  3  4  2  0
  4  5  1  0
  1  6  1  0
  5  6  2  0
  3  7  1  0
  7  8  2  0
  8  9  1  0
  9 10  2  0
 10 11  1  0
  7 12  1  0
 11 12  2  0
 10 13  1  0
 13 14  1  6
 13 15  1  0
 15 16  2  0
 15 17  1  0
 12 18  1  0
M  END
$$$$
