1R9O_FLP_A_501
     RDKit          3D

 18 19  0  0  0  0  0  0  0  0999 V2000
   20.6359   17.1890    6.7652 C   0  0  0  0  0  0  0  0  0  0  0  0
   21.7993   17.2339    7.5144 C   0  0  0  0  0  0  0  0  0  0  0  0
   22.9530   16.6064    7.0356 C   0  0  0  0  0  0  0  0  0  0  0  0
   22.9550   15.9366    5.8192 C   0  0  0  0  0  0  0  0  0  0  0  0
   21.7683   15.9157    5.1002 C   0  0  0  0  0  0  0  0  0  0  0  0
   20.6149   16.5285    5.5523 C   0  0  0  0  0  0  0  0  0  0  0  0
   24.2002   16.6488    7.8285 C   0  0  0  0  0  0  0  0  0  0  0  0
   24.1721   16.5002    9.2101 C   0  0  0  0  0  0  0  0  0  0  0  0
   25.3497   16.5412    9.9505 C   0  0  0  0  0  0  0  0  0  0  0  0
   26.5647   16.7310    9.3166 C   0  0  0  0  0  0  0  0  0  0  0  0
   26.5947   16.8808    7.9272 C   0  0  0  0  0  0  0  0  0  0  0  0
   25.4296   16.8403    7.1933 C   0  0  0  0  0  0  0  0  0  0  0  0
   27.8272   16.7748   10.1124 C   0  0  2  0  0  0  0  0  0  0  0  0
   28.5133   18.0647    9.7324 C   0  0  0  0  0  0  0  0  0  0  0  0
   28.6474   15.5886    9.8161 C   0  0  0  0  0  0  0  0  0  0  0  0
   29.2312   15.4809    8.7096 O   0  0  0  0  0  0  0  0  0  0  0  0
   28.7619   14.6048   10.7695 O   0  0  0  0  0  0  0  0  0  0  0  0
   25.4555   16.9872    5.8266 F   0  0  0  0  0  0  0  0  0  0  0  0
  1  2  2  0
  2  3  1  0
  3  4  2  0
  4  5  1  0
  1  6  1  0
  5  6  2  0
  3  7  1  0
  7  8  2  0
  8  9  1  0
  9 10  2  0
 10 11  1  0
  7 12  1  0
 11 12  2  0
 10 13  1  0
 13 14  1  6
 13 15  1  0
 15 16  2  0
 15 17  1  0
 12 18  1  0
M  END
$$$$
