1R9O_FLP_A_501
     RDKit          3D

 18 19  0  0  0  0  0  0  0  0999 V2000
   -0.1110   14.4155   -4.0347 C   0  0  0  0  0  0  0  0  0  0  0  0
    0.4094   13.2460   -4.5621 C   0  0  0  0  0  0  0  0  0  0  0  0
   -0.0290   12.0127   -4.0714 C   0  0  0  0  0  0  0  0  0  0  0  0
   -0.9796   11.9374   -3.0619 C   0  0  0  0  0  0  0  0  0  0  0  0
   -1.4751   13.1332   -2.5614 C   0  0  0  0  0  0  0  0  0  0  0  0
   -1.0574   14.3645   -3.0300 C   0  0  0  0  0  0  0  0  0  0  0  0
    0.5208   10.7584   -4.6283 C   0  0  0  0  0  0  0  0  0  0  0  0
    1.8895   10.5979   -4.8084 C   0  0  0  0  0  0  0  0  0  0  0  0
    2.4006    9.4147   -5.3332 C   0  0  0  0  0  0  0  0  0  0  0  0
    1.5483    8.3822   -5.6821 C   0  0  0  0  0  0  0  0  0  0  0  0
    0.1715    8.5419   -5.5016 C   0  0  0  0  0  0  0  0  0  0  0  0
   -0.3354    9.7128   -4.9822 C   0  0  0  0  0  0  0  0  0  0  0  0
    2.0982    7.1133   -6.2449 C   0  0  2  0  0  0  0  0  0  0  0  0
    2.0890    7.2858   -7.7446 C   0  0  0  0  0  0  0  0  0  0  0  0
    1.2800    5.9727   -5.8012 C   0  0  0  0  0  0  0  0  0  0  0  0
    0.1806    5.7263   -6.3556 O   0  0  0  0  0  0  0  0  0  0  0  0
    1.7400    5.1851   -4.7725 O   0  0  0  0  0  0  0  0  0  0  0  0
   -1.6891    9.8731   -4.8033 F   0  0  0  0  0  0  0  0  0  0  0  0
  1  2  2  0
  2  3  1  0
  3  4  2  0
  4  5  1  0
  1  6  1  0
  5  6  2  0
  3  7  1  0
  7  8  2  0
  8  9  1  0
  9 10  2  0
 10 11  1  0
  7 12  1  0
 11 12  2  0
 10 13  1  0
 13 14  1  6
 13 15  1  0
 15 16  2  0
 15 17  1  0
 12 18  1  0
M  END
$$$$
