
     RDKit          3D

 13 14  0  0  0  0  0  0  0  0999 V2000
    2.9050   48.4983   43.1117 C   0  0  0  0  0  0  0  0  0  0  0  0
    2.1699   47.4106   42.6397 C   0  0  0  0  0  0  0  0  0  0  0  0
    2.7254   46.1203   42.7635 C   0  0  0  0  0  0  0  0  0  0  0  0
    3.9861   45.9657   43.3517 C   0  0  0  0  0  0  0  0  0  0  0  0
    4.6940   47.0720   43.8145 C   0  0  0  0  0  0  0  0  0  0  0  0
    4.1667   48.3617   43.7031 C   0  0  0  0  0  0  0  0  0  0  0  0
    0.9420   47.9205   42.1050 C   0  0  0  0  0  0  0  0  0  0  0  0
    0.9727   49.2919   42.2730 C   0  0  0  0  0  0  0  0  0  0  0  0
   -0.1653   47.1251   41.4968 C   0  0  0  0  0  0  0  0  0  0  0  0
   -1.5161   47.5321   42.0237 C   0  0  0  0  0  0  0  0  0  0  0  0
    2.1559   49.6264   42.8742 N   0  0  0  0  0  0  0  0  0  0  0  0
   -1.5503   47.6679   43.3657 O   0  0  0  0  0  0  0  0  0  0  0  0
   -2.5214   47.7328   41.3590 O   0  0  0  0  0  0  0  0  0  0  0  0
  1  2  4  0
  2  3  4  0
  3  4  4  0
  4  5  4  0
  1  6  4  0
  5  6  4  0
  2  7  4  0
  7  8  4  0
  7  9  1  0
  9 10  1  0
  1 11  4  0
  8 11  4  0
 10 12  1  0
 10 13  2  0
M  END
