8CNH_V6U_A_501
     RDKit          3D

 25 27  0  0  0  0  0  0  0  0999 V2000
  -29.7000   -1.0270    1.2390 C   0  0  0  0  0  0  0  0  0  0  0  0
  -28.8900    0.1970    0.9830 C   0  0  0  0  0  0  0  0  0  0  0  0
  -27.7650    0.5140    1.8990 C   0  0  0  0  0  0  0  0  0  0  0  0
  -27.4570   -0.4290    3.0180 C   0  0  0  0  0  0  0  0  0  0  0  0
  -28.2660   -1.6430    3.2430 C   0  0  0  0  0  0  0  0  0  0  0  0
  -29.3930   -1.9590    2.3700 C   0  0  0  0  0  0  0  0  0  0  0  0
  -33.1260    4.0190    1.3690 C   0  0  0  0  0  0  0  0  0  0  0  0
  -26.7380    5.8980    1.5190 C   0  0  0  0  0  0  0  0  0  0  0  0
  -28.0500    5.4650    1.3870 C   0  0  0  0  0  0  0  0  0  0  0  0
  -28.2450    4.1490    0.8900 C   0  0  0  0  0  0  0  0  0  0  0  0
  -25.8190    3.8980    0.7040 C   0  0  0  0  0  0  0  0  0  0  0  0
  -29.6420    3.6040    0.8180 C   0  0  0  0  0  0  0  0  0  0  0  0
  -30.0770    2.3370    0.4270 C   0  0  0  0  0  0  0  0  0  0  0  0
  -31.4290    2.3550    0.5560 C   0  0  0  0  0  0  0  0  0  0  0  0
  -29.2290    1.1650   -0.1210 C   0  0  0  0  0  0  0  0  0  0  0  0
  -30.8120   -1.4540    0.3480 C   0  0  0  0  0  0  0  0  0  0  0  0
  -32.1310   -3.2320   -0.5450 C   0  0  0  0  0  0  0  0  0  0  0  0
  -25.6180    5.2030    1.1690 N   0  0  0  0  0  0  0  0  0  0  0  0
  -27.1340    3.3800    0.5750 N   0  0  0  0  0  0  0  0  0  0  0  0
  -31.7800    3.5750    1.0210 N   0  0  0  0  0  0  0  0  0  0  0  0
  -30.6580    4.3370    1.2080 N   0  0  0  0  0  0  0  0  0  0  0  0
  -24.6610    3.1560    0.4040 N   0  0  0  0  0  0  0  0  0  0  0  0
  -31.0040   -2.8480    0.2040 O   0  0  0  0  0  0  0  0  0  0  0  0
  -31.4210   -0.6610   -0.2120 O   0  0  0  0  0  0  0  0  0  0  0  0
  -26.5240    7.5540    2.0340 Cl  0  0  0  0  0  0  0  0  0  0  0  0
  1  2  2  0
  2  3  1  0
  3  4  2  0
  4  5  1  0
  1  6  1  0
  5  6  2  0
  8  9  2  0
  9 10  1  0
 10 12  1  0
 12 13  1  0
 13 14  2  0
 13 15  1  0
  2 15  1  0
  1 16  1  0
 11 18  2  0
  8 18  1  0
 11 19  1  0
 10 19  2  0
 14 20  1  0
  7 20  1  0
 12 21  2  0
 20 21  1  0
 11 22  1  0
 17 23  1  0
 16 23  1  0
 16 24  2  0
  8 25  1  0
M  END
$$$$
