7CNS_PMV_A_501
     RDKit          3D

 14 13  0  0  0  0  0  0  0  0999 V2000
   -1.6368  -21.4726  -24.8436 O   0  0  0  0  0  0  0  0  0  0  0  0
   -1.2386  -20.1207  -23.9080 P   0  0  1  0  0  5  0  0  0  0  0  0
    0.4496  -19.9511  -23.9706 O   0  0  0  0  0  0  0  0  0  0  0  0
   -1.8288  -18.8574  -24.4834 O   0  0  0  0  0  0  0  0  0  0  0  0
   -1.6724  -20.4124  -22.3269 O   0  0  0  0  0  0  0  0  0  0  0  0
   -1.2378  -19.4448  -21.4402 C   0  0  0  0  0  0  0  0  0  0  0  0
   -1.7519  -19.8622  -20.0760 C   0  0  0  0  0  0  0  0  0  0  0  0
   -1.2456  -18.9586  -18.9666 C   0  0  2  0  0  0  0  0  0  0  0  0
   -0.5463  -17.8951  -19.4825 O   0  0  0  0  0  0  0  0  0  0  0  0
   -0.3501  -19.7514  -18.0368 C   0  0  0  0  0  0  0  0  0  0  0  0
   -2.4615  -18.5239  -18.1768 C   0  0  0  0  0  0  0  0  0  0  0  0
   -3.2827  -17.5440  -18.9255 C   0  0  0  0  0  0  0  0  0  0  0  0
   -4.4901  -17.0834  -18.4294 O   0  0  0  0  0  0  0  0  0  0  0  0
   -2.9138  -17.0934  -20.0407 O   0  0  0  0  0  0  0  0  0  0  0  0
  2  1  1  6
  2  3  1  0
  2  4  2  0
  2  5  1  0
  6  5  1  6
  7  6  1  1
  7  8  1  0
  8  9  1  6
 10  8  1  1
  8 11  1  0
 11 12  1  1
 12 13  1  0
 12 14  2  0
M  END
$$$$
