7BKA_4JC_D_201
     RDKit          3D

 12 12  0  0  0  0  0  0  0  0999 V2000
   16.2368   20.6238   18.2833 O   0  0  0  0  0  0  0  0  0  0  0  0
   16.7307   19.0440   18.3095 S   0  0  1  0  0  0  0  0  0  0  0  0
   15.8840   18.4201   19.3421 O   0  0  0  0  0  0  0  0  0  0  0  0
   16.5664   18.3330   17.1490 N   0  0  0  0  0  0  0  0  0  0  0  0
   18.3987   19.0183   18.7161 C   0  0  0  0  0  0  0  0  0  0  0  0
   18.7917   18.5874   19.9753 C   0  0  0  0  0  0  0  0  0  0  0  0
   20.1502   18.5381   20.3109 C   0  0  0  0  0  0  0  0  0  0  0  0
   19.3720   19.4333   17.8017 C   0  0  0  0  0  0  0  0  0  0  0  0
   20.7087   19.3797   18.1351 C   0  0  0  0  0  0  0  0  0  0  0  0
   21.1112   18.9415   19.3744 C   0  0  0  0  0  0  0  0  0  0  0  0
   22.6021   18.9368   19.6852 C   0  0  0  0  0  0  0  0  0  0  0  0
   23.1557   20.3815   19.6438 C   0  0  0  0  0  0  0  0  0  0  0  0
  1  2  2  0
  2  3  2  0
  2  4  1  6
  2  5  1  0
  5  6  2  0
  6  7  1  0
  5  8  1  0
  8  9  2  0
  7 10  2  0
  9 10  1  0
 10 11  1  0
 11 12  1  0
M  END
