7AKL_RK5_A_501
     RDKit          3D

 34 36  0  0  0  0  0  0  0  0999 V2000
    5.5667    2.7555   -5.6104 C   0  0  0  0  0  0  0  0  0  0  0  0
    4.6252    1.5965   -5.6217 C   0  0  0  0  0  0  0  0  0  0  0  0
    3.9607    1.0682   -4.5156 C   0  0  0  0  0  0  0  0  0  0  0  0
    4.0979    1.4800   -3.0830 C   0  0  0  0  0  0  0  0  0  0  0  0
    3.2365    0.0067   -5.0156 C   0  0  0  0  0  0  0  0  0  0  0  0
    2.4012   -0.9184   -4.3909 C   0  0  0  0  0  0  0  0  0  0  0  0
    1.7847   -1.9101   -5.1912 C   0  0  0  0  0  0  0  0  0  0  0  0
    2.0376   -1.9327   -6.5902 C   0  0  0  0  0  0  0  0  0  0  0  0
    2.8917   -0.9867   -7.1845 C   0  0  0  0  0  0  0  0  0  0  0  0
    3.4776   -0.0298   -6.3631 C   0  0  0  0  0  0  0  0  0  0  0  0
    4.3073    0.9239   -6.7134 O   0  0  0  0  0  0  0  0  0  0  0  0
    0.8838   -2.9167   -4.5744 C   0  0  0  0  0  0  0  0  0  0  0  0
   -0.1329   -2.5201   -3.6894 C   0  0  0  0  0  0  0  0  0  0  0  0
   -0.9717   -3.4841   -3.1169 C   0  0  0  0  0  0  0  0  0  0  0  0
   -2.0063   -3.0975   -2.2122 N   0  0  0  0  0  0  0  0  0  0  0  0
   -0.7986   -4.7980   -3.4210 N   0  0  0  0  0  0  0  0  0  0  0  0
    0.1742   -5.2177   -4.2732 C   0  0  0  0  0  0  0  0  0  0  0  0
    0.3103   -6.6095   -4.5615 N   0  0  0  0  0  0  0  0  0  0  0  0
    1.0331   -4.2834   -4.8645 C   0  0  0  0  0  0  0  0  0  0  0  0
    5.0204    3.6772   -5.3211 H   0  0  0  0  0  0  0  0  0  0  0  0
    6.3850    2.5674   -4.8844 H   0  0  0  0  0  0  0  0  0  0  0  0
    6.0061    2.8974   -6.6200 H   0  0  0  0  0  0  0  0  0  0  0  0
    4.8810    0.8636   -2.5952 H   0  0  0  0  0  0  0  0  0  0  0  0
    4.3800    2.5510   -3.0135 H   0  0  0  0  0  0  0  0  0  0  0  0
    3.1346    1.3370   -2.5506 H   0  0  0  0  0  0  0  0  0  0  0  0
    2.2209   -0.8602   -3.3252 H   0  0  0  0  0  0  0  0  0  0  0  0
    1.5905   -2.6937   -7.2170 H   0  0  0  0  0  0  0  0  0  0  0  0
    3.0931   -1.0074   -8.2476 H   0  0  0  0  0  0  0  0  0  0  0  0
   -0.2627   -1.4764   -3.4309 H   0  0  0  0  0  0  0  0  0  0  0  0
   -2.1565   -2.0940   -1.9642 H   0  0  0  0  0  0  0  0  0  0  0  0
   -2.6288   -3.8193   -1.7861 H   0  0  0  0  0  0  0  0  0  0  0  0
   -0.3331   -7.3032   -4.1197 H   0  0  0  0  0  0  0  0  0  0  0  0
    1.0501   -6.9537   -5.2135 H   0  0  0  0  0  0  0  0  0  0  0  0
    1.7957   -4.6201   -5.5560 H   0  0  0  0  0  0  0  0  0  0  0  0
  1  2  1  0
  2  3  4  0
  3  4  1  0
  3  5  4  0
  5  6  4  0
  6  7  4  0
  7  8  4  0
  8  9  4  0
  5 10  4  0
  9 10  4  0
  2 11  4  0
 10 11  4  0
  7 12  1  0
 12 13  4  0
 13 14  4  0
 14 15  1  0
 14 16  4  0
 16 17  4  0
 17 18  1  0
 17 19  4  0
 12 19  4  0
  1 20  1  0
  1 21  1  0
  1 22  1  0
  4 23  1  0
  4 24  1  0
  4 25  1  0
  6 26  1  0
  8 27  1  0
  9 28  1  0
 13 29  1  0
 15 30  1  0
 15 31  1  0
 18 32  1  0
 18 33  1  0
 19 34  1  0
M  END
