7SFO_98L_A_601
     RDKit          3D

 25 28  0  0  0  0  0  0  0  0999 V2000
    1.7096    0.1472    5.0357 N   0  0  0  0  0  0  0  0  0  0  0  0
    4.3793   -0.4578    8.2001 N   0  0  0  0  0  0  0  0  0  0  0  0
    3.5876   -2.7734    9.0333 C   0  0  0  0  0  0  0  0  0  0  0  0
    2.2709   -2.6227    9.0724 C   0  0  0  0  0  0  0  0  0  0  0  0
    1.4615   -3.1819   10.2230 C   0  0  0  0  0  0  0  0  0  0  0  0
    1.6675   -1.9793    7.8485 C   0  0  0  0  0  0  0  0  0  0  0  0
    1.4413   -0.7293    5.9569 C   0  0  0  0  0  0  0  0  0  0  0  0
    2.8629    0.7984    5.1724 C   0  0  0  0  0  0  0  0  0  0  0  0
    5.6421    0.2362    8.1767 C   0  0  0  0  0  0  0  0  0  0  0  0
    7.7478   -0.1533    9.3709 C   0  0  0  0  0  0  0  0  0  0  0  0
    8.3968   -2.2562   10.4714 C   0  0  0  0  0  0  0  0  0  0  0  0
    2.1149   -3.7539   11.2120 C   0  0  0  0  0  0  0  0  0  0  0  0
    3.4699   -0.2597    7.1057 C   0  0  0  0  0  0  0  0  0  0  0  0
    0.4760   -2.4744    7.4122 C   0  0  0  0  0  0  0  0  0  0  0  0
    6.6039   -0.6375    8.9755 C   0  0  0  0  0  0  0  0  0  0  0  0
    8.7152   -1.0128   10.1785 C   0  0  0  0  0  0  0  0  0  0  0  0
    7.0650   -2.8313   10.0060 C   0  0  0  0  0  0  0  0  0  0  0  0
    6.2303   -2.0869    9.3012 C   0  0  0  0  0  0  0  0  0  0  0  0
    3.6265   -3.9121   11.1862 C   0  0  0  0  0  0  0  0  0  0  0  0
    4.3370   -3.4570   10.1709 C   0  0  0  0  0  0  0  0  0  0  0  0
    2.2985   -0.9791    7.0418 C   0  0  0  0  0  0  0  0  0  0  0  0
    3.7568    0.6421    6.1647 N   0  0  0  0  0  0  0  0  0  0  0  0
    9.9389   -0.4691   10.6052 O   0  0  0  0  0  0  0  0  0  0  0  0
   -0.0659   -1.6956    5.9328 S   0  0  0  0  0  0  0  0  0  0  0  0
    3.2041    1.9748    3.8759 Cl  0  0  0  0  0  0  0  0  0  0  0  0
  3  4  2  0
  4  5  1  0
  4  6  1  0
  1  7  2  0
  1  8  1  0
  2  9  1  0
  5 12  2  0
  2 13  1  0
  6 14  2  0
 10 15  2  0
  9 15  1  0
 11 16  2  0
 10 16  1  0
 11 17  1  0
 17 18  2  0
 15 18  1  0
 12 19  1  0
 19 20  2  0
  3 20  1  0
  6 21  1  0
 13 21  2  0
  7 21  1  0
 13 22  1  0
  8 22  2  0
 16 23  1  0
 14 24  1  0
  7 24  1  0
  8 25  1  0
M  END
