7OSO_0V1_A_504
     RDKit          3D

  7  6  0  0  0  0  0  0  0  0999 V2000
   29.8316    7.6867   12.1100 C   0  0  0  0  0  0  0  0  0  0  0  0
   30.8666    6.5661   11.9002 C   0  0  2  0  0  0  0  0  0  0  0  0
   31.9725    6.7550   12.9275 C   0  0  0  0  0  0  0  0  0  0  0  0
   33.1128    5.7511   12.7584 C   0  0  0  0  0  0  0  0  0  0  0  0
   32.8507    4.5495   13.4757 O   0  0  0  0  0  0  0  0  0  0  0  0
   31.4060    6.6490   10.5648 O   0  0  0  0  0  0  0  0  0  0  0  0
   28.7610    7.6703   11.1508 O   0  0  0  0  0  0  0  0  0  0  0  0
  1  2  1  0
  2  3  1  0
  3  4  1  0
  4  5  1  0
  2  6  1  6
  1  7  1  0
M  END
