7ULC_56B_A_401
     RDKit          3D

 33 36  0  0  0  0  0  0  0  0999 V2000
   71.4090   14.7190   67.5070 N   0  0  0  0  0  0  0  0  0  0  0  0
   72.3040   13.0620   65.7050 C   0  0  1  0  0  0  0  0  0  0  0  0
   71.4150   13.0740   64.5840 O   0  0  0  0  0  0  0  0  0  0  0  0
   76.7420   12.8230   69.2350 P   0  0  0  0  0  0  0  0  0  0  0  0
   71.5770   13.3500   66.9960 C   0  0  1  0  0  0  0  0  0  0  0  0
   71.2710   19.3320   68.3100 N   0  0  0  0  0  0  0  0  0  0  0  0
   73.1570   21.4940   70.5820 O   0  0  0  0  0  0  0  0  0  0  0  0
   72.1670   15.8090   67.2950 C   0  0  0  0  0  0  0  0  0  0  0  0
   69.5250   14.1350   68.9510 N   0  0  0  0  0  0  0  0  0  0  0  0
   71.0180   22.1200   72.0910 O   0  0  0  0  0  0  0  0  0  0  0  0
   71.7010   16.8640   68.0780 C   0  0  0  0  0  0  0  0  0  0  0  0
   67.7200   13.7790   70.3670 N   0  0  0  0  0  0  0  0  0  0  0  0
   69.3050   18.1950   69.7360 O   0  0  0  0  0  0  0  0  0  0  0  0
   72.2710   18.2660   68.1110 C   0  0  0  0  0  0  0  0  0  0  0  0
   68.6890   15.9160   70.2860 N   0  0  0  0  0  0  0  0  0  0  0  0
   72.4540   12.7770   68.0160 O   0  0  0  0  0  0  0  0  0  0  0  0
   71.7710   20.6500   68.7950 C   0  0  2  0  0  0  0  0  0  0  0  0
   75.2170   12.5190   68.8240 O   0  0  0  0  0  0  0  0  0  0  0  0
   72.0150   20.6780   70.3100 C   0  0  2  0  0  0  0  0  0  0  0  0
   77.6210   11.6150   69.0430 O   0  0  0  0  0  0  0  0  0  0  0  0
   70.7620   21.2970   70.9460 C   0  0  2  0  0  0  0  0  0  0  0  0
   70.1980   22.0910   69.7950 C   0  0  0  0  0  0  0  0  0  0  0  0
   77.2770   13.9720   68.4070 O   0  0  0  0  0  0  0  0  0  0  0  0
   70.7390   21.7340   68.6370 C   0  0  0  0  0  0  0  0  0  0  0  0
   71.8370   10.6670   66.0410 O   0  0  0  0  0  0  0  0  0  0  0  0
   70.5540   16.2790   68.8000 C   0  0  0  0  0  0  0  0  0  0  0  0
   70.4750   14.9500   68.4270 C   0  0  0  0  0  0  0  0  0  0  0  0
   68.6640   14.6170   69.8770 C   0  0  0  0  0  0  0  0  0  0  0  0
   69.7380   16.8520   69.8770 C   0  0  0  0  0  0  0  0  0  0  0  0
   73.3620   11.8260   67.4490 C   0  0  2  0  0  0  0  0  0  0  0  0
   74.8140   12.3070   67.4800 C   0  0  0  0  0  0  0  0  0  0  0  0
   72.8660   11.6790   66.0300 C   0  0  2  0  0  0  0  0  0  0  0  0
   76.6850   13.1770   70.6990 O   0  0  0  0  0  0  0  0  0  0  0  0
  2  3  1  6
  5  1  1  1
  2  5  1  0
  1  8  1  0
  8 11  2  0
 11 14  1  0
  6 14  1  0
  5 16  1  0
 17  6  1  1
  4 18  1  0
 17 19  1  0
 19  7  1  6
  4 20  1  0
 21 10  1  1
 19 21  1  0
 21 22  1  0
  4 23  2  0
 22 24  2  0
 17 24  1  0
 11 26  1  0
  9 27  1  0
 26 27  2  0
  1 27  1  0
 12 28  1  0
 15 28  1  0
  9 28  2  0
 15 29  1  0
 13 29  2  0
 26 29  1  0
 16 30  1  0
 30 31  1  6
 18 31  1  0
 32 25  1  1
 30 32  1  0
  2 32  1  0
  4 33  1  0
M  END
$$$$
7ULC_56B_B_402
     RDKit          3D

 33 36  0  0  0  0  0  0  0  0999 V2000
   29.4730    3.1940   47.3190 N   0  0  0  0  0  0  0  0  0  0  0  0
   30.0480    5.0280   45.5740 C   0  0  1  0  0  0  0  0  0  0  0  0
   30.7400    4.4480   44.4670 O   0  0  0  0  0  0  0  0  0  0  0  0
   27.0990    8.3410   49.1680 P   0  0  0  0  0  0  0  0  0  0  0  0
   30.3330    4.2700   46.8400 C   0  0  1  0  0  0  0  0  0  0  0  0
   26.2470   -0.1010   47.8730 N   0  0  0  0  0  0  0  0  0  0  0  0
   23.3400   -0.3150   50.1310 O   0  0  0  0  0  0  0  0  0  0  0  0
   28.1510    2.9990   47.0820 C   0  0  0  0  0  0  0  0  0  0  0  0
   31.1930    2.1840   48.7720 N   0  0  0  0  0  0  0  0  0  0  0  0
   24.3210   -2.3850   51.5270 O   0  0  0  0  0  0  0  0  0  0  0  0
   27.7170    1.9270   47.8410 C   0  0  0  0  0  0  0  0  0  0  0  0
   32.6020    1.0060   50.2520 N   0  0  0  0  0  0  0  0  0  0  0  0
   28.2660   -0.6610   49.6300 O   0  0  0  0  0  0  0  0  0  0  0  0
   26.3130    1.3680   47.8570 C   0  0  0  0  0  0  0  0  0  0  0  0
   30.4350    0.3140   50.0600 N   0  0  0  0  0  0  0  0  0  0  0  0
   30.0440    5.2490   47.8690 O   0  0  0  0  0  0  0  0  0  0  0  0
   24.9470   -0.6350   48.3570 C   0  0  2  0  0  0  0  0  0  0  0  0
   28.3970    7.4840   48.7550 O   0  0  0  0  0  0  0  0  0  0  0  0
   24.7240   -0.5670   49.8750 C   0  0  2  0  0  0  0  0  0  0  0  0
   26.7940    8.0050   50.6150 O   0  0  0  0  0  0  0  0  0  0  0  0
   25.1250   -1.9360   50.4330 C   0  0  2  0  0  0  0  0  0  0  0  0
   24.9670   -2.8240   49.2250 C   0  0  0  0  0  0  0  0  0  0  0  0
   27.4360    9.8060   49.0270 O   0  0  0  0  0  0  0  0  0  0  0  0
   24.8760   -2.1120   48.1030 C   0  0  0  0  0  0  0  0  0  0  0  0
   32.0100    6.3930   46.0400 O   0  0  0  0  0  0  0  0  0  0  0  0
   28.9330    1.4710   48.5570 C   0  0  0  0  0  0  0  0  0  0  0  0
   29.9550    2.3420   48.2340 C   0  0  0  0  0  0  0  0  0  0  0  0
   31.4000    1.1890   49.6890 C   0  0  0  0  0  0  0  0  0  0  0  0
   29.0550    0.4930   49.6300 C   0  0  0  0  0  0  0  0  0  0  0  0
   30.1060    6.5960   47.3690 C   0  0  2  0  0  0  0  0  0  0  0  0
   28.7750    7.3330   47.3950 C   0  0  0  0  0  0  0  0  0  0  0  0
   30.5840    6.4030   45.9610 C   0  0  2  0  0  0  0  0  0  0  0  0
   25.9600    7.9930   48.2340 O   0  0  0  0  0  0  0  0  0  0  0  0
  2  3  1  6
  5  1  1  1
  2  5  1  0
  1  8  1  0
  8 11  2  0
 11 14  1  0
  6 14  1  0
  5 16  1  0
 17  6  1  1
  4 18  1  0
 17 19  1  0
 19  7  1  6
  4 20  1  0
 21 10  1  1
 19 21  1  0
 21 22  1  0
  4 23  2  0
 22 24  2  0
 17 24  1  0
 11 26  1  0
  9 27  1  0
 26 27  2  0
  1 27  1  0
 12 28  1  0
 15 28  1  0
  9 28  2  0
 15 29  1  0
 13 29  2  0
 26 29  1  0
 16 30  1  0
 30 31  1  6
 18 31  1  0
 32 25  1  1
 30 32  1  0
  2 32  1  0
  4 33  1  0
M  END
$$$$
