6ZPB_3D1_A_201
     RDKit          3D

 18 20  0  0  0  0  0  0  0  0999 V2000
   -3.6150   21.0130   -5.8810 O   0  0  0  0  0  0  0  0  0  0  0  0
   -4.5220   20.5150   -6.8490 C   0  0  0  0  0  0  0  0  0  0  0  0
   -4.9340   19.1110   -6.5040 C   0  0  1  0  0  0  0  0  0  0  0  0
   -5.9670   18.6980   -7.4230 O   0  0  0  0  0  0  0  0  0  0  0  0
   -5.5180   17.6050   -8.2050 C   0  0  1  0  0  0  0  0  0  0  0  0
   -6.0290   17.7900   -9.5570 N   0  0  0  0  0  0  0  0  0  0  0  0
   -7.1470   17.2040  -10.1030 C   0  0  0  0  0  0  0  0  0  0  0  0
   -7.9190   16.2560   -9.5600 N   0  0  0  0  0  0  0  0  0  0  0  0
   -8.9450   15.9530  -10.3620 C   0  0  0  0  0  0  0  0  0  0  0  0
   -9.2460   16.4570  -11.5680 N   0  0  0  0  0  0  0  0  0  0  0  0
   -8.4390   17.4070  -12.0960 C   0  0  0  0  0  0  0  0  0  0  0  0
   -8.7360   17.8980  -13.3090 N   0  0  0  0  0  0  0  0  0  0  0  0
   -7.3260   17.8140  -11.3370 C   0  0  0  0  0  0  0  0  0  0  0  0
   -6.3220   18.7410  -11.5760 N   0  0  0  0  0  0  0  0  0  0  0  0
   -5.5830   18.6840  -10.4940 C   0  0  0  0  0  0  0  0  0  0  0  0
   -4.0010   17.5810   -8.0630 C   0  0  0  0  0  0  0  0  0  0  0  0
   -3.8190   18.0690   -6.6340 C   0  0  2  0  0  0  0  0  0  0  0  0
   -4.0620   16.9950   -5.7240 O   0  0  0  0  0  0  0  0  0  0  0  0
  1  2  1  0
  3  2  1  6
  3  4  1  0
  4  5  1  0
  5  6  1  6
  6  7  1  0
  7  8  2  0
  8  9  1  0
  9 10  2  0
 10 11  1  0
 11 12  1  0
  7 13  1  0
 11 13  2  0
 13 14  1  0
  6 15  1  0
 14 15  2  0
  5 16  1  0
  3 17  1  0
 16 17  1  0
 17 18  1  1
M  END
$$$$
