1R55_097_A_518
     RDKit          3D

 23 22  0  0  0  0  0  0  0  0999 V2000
   26.7470   19.4447   48.0715 N   0  0  0  0  0  0  0  0  0  0  0  0
   29.5114   19.2797   43.8886 C   0  0  0  0  0  0  0  0  0  0  0  0
   25.4903   17.1700   47.4685 O   0  0  0  0  0  0  0  0  0  0  0  0
   28.0625   20.0228   48.0091 C   0  0  0  0  0  0  0  0  0  0  0  0
   30.1883   25.0599   45.4566 O   0  0  0  0  0  0  0  0  0  0  0  0
   26.4065   18.5029   49.1575 C   0  0  1  0  0  0  0  0  0  0  0  0
   25.2321   19.0387   49.9410 C   0  0  1  0  0  0  0  0  0  0  0  0
   24.7699   18.0605   50.9997 C   0  0  0  0  0  0  0  0  0  0  0  0
   25.4274   20.4139   50.4900 C   0  0  0  0  0  0  0  0  0  0  0  0
   26.1942   17.1967   48.5370 C   0  0  0  0  0  0  0  0  0  0  0  0
   26.4598   14.7228   48.2535 C   0  0  0  0  0  0  0  0  0  0  0  0
   30.2070   24.0392   46.3657 N   0  0  0  0  0  0  0  0  0  0  0  0
   28.9241   23.4781   46.7598 C   0  0  0  0  0  0  0  0  0  0  0  0
   27.9419   24.0395   46.2099 O   0  0  0  0  0  0  0  0  0  0  0  0
   28.8724   22.3706   47.7081 C   0  0  1  0  0  0  0  0  0  0  0  0
   27.8829   22.7109   48.6714 O   0  0  0  0  0  0  0  0  0  0  0  0
   28.3891   21.1184   47.0444 C   0  0  1  0  0  0  0  0  0  0  0  0
   29.0710   20.6332   45.8336 C   0  0  0  0  0  0  0  0  0  0  0  0
   28.6660   19.3823   45.1842 C   0  0  2  0  0  0  0  0  0  0  0  0
   28.8800   18.0986   45.8962 C   0  0  0  0  0  0  0  0  0  0  0  0
   28.9008   19.5440   48.8132 O   0  0  0  0  0  0  0  0  0  0  0  0
   24.0462   19.1346   48.9656 C   0  0  0  0  0  0  0  0  0  0  0  0
   26.6842   15.9605   48.9914 N   0  0  0  0  0  0  0  0  0  0  0  0
  1  4  1  0
  6  1  1  6
  6  7  1  0
  7  8  1  1
  7  9  1  0
  3 10  2  0
  6 10  1  0
  5 12  1  0
 12 13  1  0
 13 14  2  0
 13 15  1  0
 15 16  1  1
  4 17  1  0
 15 17  1  0
 17 18  1  6
 19  2  1  6
 18 19  1  0
 19 20  1  0
  4 21  2  0
  7 22  1  0
 10 23  1  0
 11 23  1  0
M  END
$$$$
