1R55_097_A_518
     RDKit          3D

 23 22  0  0  0  0  0  0  0  0999 V2000
   26.4719   14.7310   48.9425 N   0  0  0  0  0  0  0  0  0  0  0  0
   22.4784   14.9690   52.1076 C   0  0  0  0  0  0  0  0  0  0  0  0
   26.5236   17.4037   49.4170 O   0  0  0  0  0  0  0  0  0  0  0  0
   26.2888   13.8607   50.0728 C   0  0  0  0  0  0  0  0  0  0  0  0
   22.5481    9.1811   50.6493 O   0  0  0  0  0  0  0  0  0  0  0  0
   27.7269   15.4967   48.7974 C   0  0  1  0  0  0  0  0  0  0  0  0
   28.0095   15.7304   47.3326 C   0  0  1  0  0  0  0  0  0  0  0  0
   28.2991   14.4361   46.6030 C   0  0  0  0  0  0  0  0  0  0  0  0
   26.9867   16.5592   46.6274 C   0  0  0  0  0  0  0  0  0  0  0  0
   27.5817   16.7081   49.6022 C   0  0  0  0  0  0  0  0  0  0  0  0
   28.2215   18.4047   51.3294 C   0  0  0  0  0  0  0  0  0  0  0  0
   23.6286    9.9501   50.9810 N   0  0  0  0  0  0  0  0  0  0  0  0
   24.2735   10.6872   49.9055 C   0  0  0  0  0  0  0  0  0  0  0  0
   23.7190   10.5293   48.7875 O   0  0  0  0  0  0  0  0  0  0  0  0
   25.4473   11.5074   50.1847 C   0  0  1  0  0  0  0  0  0  0  0  0
   26.3403   11.3172   49.0941 O   0  0  0  0  0  0  0  0  0  0  0  0
   25.0971   12.9633   50.1824 C   0  0  1  0  0  0  0  0  0  0  0  0
   24.0857   13.4643   51.1270 C   0  0  0  0  0  0  0  0  0  0  0  0
   23.6622   14.8681   51.1115 C   0  0  2  0  0  0  0  0  0  0  0  0
   24.6234   15.9156   51.5354 C   0  0  0  0  0  0  0  0  0  0  0  0
   27.1913   13.9126   50.9454 O   0  0  0  0  0  0  0  0  0  0  0  0
   29.3276   16.5194   47.2487 C   0  0  0  0  0  0  0  0  0  0  0  0
   28.4855   17.1923   50.5632 N   0  0  0  0  0  0  0  0  0  0  0  0
  1  4  1  0
  6  1  1  6
  6  7  1  0
  7  8  1  6
  7  9  1  0
  3 10  2  0
  6 10  1  0
  5 12  1  0
 12 13  1  0
 13 14  2  0
 13 15  1  0
 15 16  1  6
  4 17  1  0
 15 17  1  0
 17 18  1  1
 19  2  1  1
 18 19  1  0
 19 20  1  0
  4 21  2  0
  7 22  1  0
 10 23  1  0
 11 23  1  0
M  END
$$$$
