1R55_097_A_518
     RDKit          3D

 23 22  0  0  0  0  0  0  0  0999 V2000
   23.9728    8.1393   53.1624 N   0  0  0  0  0  0  0  0  0  0  0  0
   20.6418    9.8857   54.1210 C   0  0  0  0  0  0  0  0  0  0  0  0
   23.3863    6.4510   55.1401 O   0  0  0  0  0  0  0  0  0  0  0  0
   23.3834    8.4426   51.8861 C   0  0  0  0  0  0  0  0  0  0  0  0
   26.3721   11.9274   49.9614 O   0  0  0  0  0  0  0  0  0  0  0  0
   24.7871    6.9177   53.3267 C   0  0  1  0  0  0  0  0  0  0  0  0
   26.1273    7.2800   53.9205 C   0  0  1  0  0  0  0  0  0  0  0  0
   26.9930    8.0349   52.9345 C   0  0  0  0  0  0  0  0  0  0  0  0
   26.0545    7.9637   55.2464 C   0  0  0  0  0  0  0  0  0  0  0  0
   23.9920    5.9793   54.1162 C   0  0  0  0  0  0  0  0  0  0  0  0
   22.9849    3.7672   54.7190 C   0  0  0  0  0  0  0  0  0  0  0  0
   25.0442   11.6742   49.7577 N   0  0  0  0  0  0  0  0  0  0  0  0
   24.3380   10.9531   50.8052 C   0  0  0  0  0  0  0  0  0  0  0  0
   25.0379   10.7456   51.8296 O   0  0  0  0  0  0  0  0  0  0  0  0
   22.9513   10.5468   50.6038 C   0  0  1  0  0  0  0  0  0  0  0  0
   22.9275    9.7727   49.4109 O   0  0  0  0  0  0  0  0  0  0  0  0
   22.4961    9.6322   51.6986 C   0  0  1  0  0  0  0  0  0  0  0  0
   21.0659    9.3070   51.8200 C   0  0  0  0  0  0  0  0  0  0  0  0
   20.5151    8.7588   53.0637 C   0  0  2  0  0  0  0  0  0  0  0  0
   19.0914    8.3436   53.1000 C   0  0  0  0  0  0  0  0  0  0  0  0
   23.6662    7.6444   50.9579 O   0  0  0  0  0  0  0  0  0  0  0  0
   26.8837    5.9623   54.1624 C   0  0  0  0  0  0  0  0  0  0  0  0
   23.8208    4.6066   53.8686 N   0  0  0  0  0  0  0  0  0  0  0  0
  1  4  1  0
  6  1  1  1
  6  7  1  0
  7  8  1  6
  7  9  1  0
  3 10  2  0
  6 10  1  0
  5 12  1  0
 12 13  1  0
 13 14  2  0
 13 15  1  0
 15 16  1  6
  4 17  1  0
 15 17  1  0
 17 18  1  6
 19  2  1  1
 18 19  1  0
 19 20  1  0
  4 21  2  0
  7 22  1  0
 10 23  1  0
 11 23  1  0
M  END
$$$$
