1R55_097_A_518
     RDKit          3D

 23 22  0  0  0  0  0  0  0  0999 V2000
   23.4842   12.6281   50.8292 N   0  0  0  0  0  0  0  0  0  0  0  0
   19.3186   15.5063   49.3289 C   0  0  0  0  0  0  0  0  0  0  0  0
   24.4808   13.5736   48.5466 O   0  0  0  0  0  0  0  0  0  0  0  0
   22.7761   13.5989   51.6196 C   0  0  0  0  0  0  0  0  0  0  0  0
   17.3619   13.5585   54.1894 O   0  0  0  0  0  0  0  0  0  0  0  0
   24.9501   12.7297   50.6764 C   0  0  1  0  0  0  0  0  0  0  0  0
   25.5320   11.3532   50.4605 C   0  0  1  0  0  0  0  0  0  0  0  0
   27.0288   11.4043   50.2402 C   0  0  0  0  0  0  0  0  0  0  0  0
   25.1479   10.3473   51.4955 C   0  0  0  0  0  0  0  0  0  0  0  0
   25.2004   13.6850   49.5990 C   0  0  0  0  0  0  0  0  0  0  0  0
   26.3062   15.6235   48.4630 C   0  0  0  0  0  0  0  0  0  0  0  0
   18.6988   13.8412   54.1490 N   0  0  0  0  0  0  0  0  0  0  0  0
   19.5588   12.8852   53.4690 C   0  0  0  0  0  0  0  0  0  0  0  0
   18.9500   11.8590   53.0706 O   0  0  0  0  0  0  0  0  0  0  0  0
   20.9808   13.1688   53.3079 C   0  0  1  0  0  0  0  0  0  0  0  0
   21.6697   11.9641   53.6195 O   0  0  0  0  0  0  0  0  0  0  0  0
   21.3082   13.4739   51.8789 C   0  0  1  0  0  0  0  0  0  0  0  0
   20.5094   14.4742   51.1526 C   0  0  0  0  0  0  0  0  0  0  0  0
   19.9406   14.1788   49.8336 C   0  0  2  0  0  0  0  0  0  0  0  0
   20.8415   13.7276   48.7449 C   0  0  0  0  0  0  0  0  0  0  0  0
   23.4740   14.5433   52.0665 O   0  0  0  0  0  0  0  0  0  0  0  0
   24.9675   10.8296   49.1286 C   0  0  0  0  0  0  0  0  0  0  0  0
   26.1523   14.7188   49.5964 N   0  0  0  0  0  0  0  0  0  0  0  0
  1  4  1  0
  6  1  1  6
  6  7  1  0
  7  8  1  6
  7  9  1  0
  3 10  2  0
  6 10  1  0
  5 12  1  0
 12 13  1  0
 13 14  2  0
 13 15  1  0
 15 16  1  6
  4 17  1  0
 15 17  1  0
 17 18  1  1
 19  2  1  6
 18 19  1  0
 19 20  1  0
  4 21  2  0
  7 22  1  0
 10 23  1  0
 11 23  1  0
M  END
$$$$
