1R55_097_A_518
     RDKit          3D

 23 22  0  0  0  0  0  0  0  0999 V2000
   27.1193   22.6012   47.9637 N   0  0  0  0  0  0  0  0  0  0  0  0
   29.2176   19.2688   48.7477 C   0  0  0  0  0  0  0  0  0  0  0  0
   29.0798   22.9033   46.1477 O   0  0  0  0  0  0  0  0  0  0  0  0
   26.2878   21.4643   47.6729 C   0  0  0  0  0  0  0  0  0  0  0  0
   24.2423   17.1306   51.3526 O   0  0  0  0  0  0  0  0  0  0  0  0
   27.1100   23.7711   47.0617 C   0  0  1  0  0  0  0  0  0  0  0  0
   27.5531   24.9984   47.8216 C   0  0  1  0  0  0  0  0  0  0  0  0
   27.6402   26.2140   46.9238 C   0  0  0  0  0  0  0  0  0  0  0  0
   26.7760   25.2715   49.0675 C   0  0  0  0  0  0  0  0  0  0  0  0
   27.9361   23.4247   45.9069 C   0  0  0  0  0  0  0  0  0  0  0  0
   28.5153   23.2208   43.4791 C   0  0  0  0  0  0  0  0  0  0  0  0
   24.1508   17.9693   50.2770 N   0  0  0  0  0  0  0  0  0  0  0  0
   24.8639   19.2344   50.3596 C   0  0  0  0  0  0  0  0  0  0  0  0
   25.4671   19.3989   51.4512 O   0  0  0  0  0  0  0  0  0  0  0  0
   24.8299   20.1659   49.2373 C   0  0  1  0  0  0  0  0  0  0  0  0
   24.5102   21.4406   49.7812 O   0  0  0  0  0  0  0  0  0  0  0  0
   26.1857   20.3094   48.6182 C   0  0  1  0  0  0  0  0  0  0  0  0
   26.8912   19.1101   48.1382 C   0  0  0  0  0  0  0  0  0  0  0  0
   28.2324   19.2021   47.5524 C   0  0  2  0  0  0  0  0  0  0  0  0
   28.7238   18.0927   46.6991 C   0  0  0  0  0  0  0  0  0  0  0  0
   25.6657   21.5156   46.5825 O   0  0  0  0  0  0  0  0  0  0  0  0
   29.0035   24.7505   48.2708 C   0  0  0  0  0  0  0  0  0  0  0  0
   27.6058   23.6040   44.5528 N   0  0  0  0  0  0  0  0  0  0  0  0
  1  4  1  0
  6  1  1  1
  6  7  1  0
  7  8  1  6
  7  9  1  0
  3 10  2  0
  6 10  1  0
  5 12  1  0
 12 13  1  0
 13 14  2  0
 13 15  1  0
 15 16  1  1
  4 17  1  0
 15 17  1  0
 17 18  1  6
 19  2  1  1
 18 19  1  0
 19 20  1  0
  4 21  2  0
  7 22  1  0
 10 23  1  0
 11 23  1  0
M  END
$$$$
