5SD5_HWI_A_202
     RDKit          3D

 56 58  0  0  0  0  0  0  0  0999 V2000
   -2.9218   -1.0583   -0.8524 C   0  0  0  0  0  0  0  0  0  0  0  0
   -1.6165    1.8906   -1.3352 C   0  0  0  0  0  0  0  0  0  0  0  0
    0.2345    0.5732    2.4941 C   0  0  0  0  0  0  0  0  0  0  0  0
    2.1478   -0.5930    3.4119 C   0  0  0  0  0  0  0  0  0  0  0  0
    2.7503   -0.5939    2.1533 C   0  0  0  0  0  0  0  0  0  0  0  0
    2.1065   -0.0070    1.0559 C   0  0  0  0  0  0  0  0  0  0  0  0
    2.5783    0.5901   -1.5571 C   0  0  0  0  0  0  0  0  0  0  0  0
   -1.6544    0.6227   -2.2034 C   0  0  0  0  0  0  0  0  0  0  0  0
   -1.1459    1.6287    0.0977 C   0  0  0  0  0  0  0  0  0  0  0  0
    0.8296    0.5646    1.2161 C   0  0  0  0  0  0  0  0  0  0  0  0
    0.8962    0.0084    3.5942 C   0  0  0  0  0  0  0  0  0  0  0  0
    0.2334   -0.0205    4.9398 C   0  0  0  0  0  0  0  0  0  0  0  0
    0.2667   -2.6099   -1.3193 C   0  0  0  0  0  0  0  0  0  0  0  0
   -1.1779   -2.6771   -1.8092 C   0  0  0  0  0  0  0  0  0  0  0  0
   -2.1314   -2.2243   -0.7353 C   0  0  0  0  0  0  0  0  0  0  0  0
   -3.1712   -2.7228    1.3385 C   0  0  0  0  0  0  0  0  0  0  0  0
   -3.8783   -0.8051    0.1460 C   0  0  0  0  0  0  0  0  0  0  0  0
    3.7970   -0.0257   -2.1763 C   0  0  0  0  0  0  0  0  0  0  0  0
    3.9574   -0.6287   -0.8123 C   0  0  0  0  0  0  0  0  0  0  0  0
    3.5080   -1.0259   -3.2635 C   0  0  0  0  0  0  0  0  0  0  0  0
   -2.2767   -3.0159    0.3614 N   0  0  0  0  0  0  0  0  0  0  0  0
   -3.2869   -3.5712    2.4783 N   0  0  0  0  0  0  0  0  0  0  0  0
   -3.9699   -1.6328    1.2190 N   0  0  0  0  0  0  0  0  0  0  0  0
   -4.7438    0.3307    0.0646 N   0  0  0  0  0  0  0  0  0  0  0  0
    2.7552   -0.0123   -0.2210 N   0  0  0  0  0  0  0  0  0  0  0  0
   -2.8103   -0.1752   -1.9357 O   0  0  0  0  0  0  0  0  0  0  0  0
    0.1740    1.0894    0.0913 O   0  0  0  0  0  0  0  0  0  0  0  0
    4.2439   -2.0404   -3.3966 O   0  0  0  0  0  0  0  0  0  0  0  0
    2.4818   -0.7936   -4.1754 O   0  0  0  0  0  0  0  0  0  0  0  0
   -2.6251    2.3564   -1.3146 H   0  0  0  0  0  0  0  0  0  0  0  0
   -0.9196    2.6206   -1.8019 H   0  0  0  0  0  0  0  0  0  0  0  0
   -0.7422    1.0135    2.6434 H   0  0  0  0  0  0  0  0  0  0  0  0
    2.6606   -1.0573    4.2455 H   0  0  0  0  0  0  0  0  0  0  0  0
    3.7244   -1.0509    2.0333 H   0  0  0  0  0  0  0  0  0  0  0  0
    1.6209    0.2639   -2.0149 H   0  0  0  0  0  0  0  0  0  0  0  0
    2.6495    1.6992   -1.4997 H   0  0  0  0  0  0  0  0  0  0  0  0
   -0.7233    0.0398   -2.0864 H   0  0  0  0  0  0  0  0  0  0  0  0
   -1.7049    0.9387   -3.2668 H   0  0  0  0  0  0  0  0  0  0  0  0
   -1.8427    0.9307    0.5995 H   0  0  0  0  0  0  0  0  0  0  0  0
   -1.1464    2.5865    0.6609 H   0  0  0  0  0  0  0  0  0  0  0  0
   -0.4010   -0.9277    5.0189 H   0  0  0  0  0  0  0  0  0  0  0  0
   -0.4017    0.8798    5.0824 H   0  0  0  0  0  0  0  0  0  0  0  0
    0.9916   -0.0367    5.7513 H   0  0  0  0  0  0  0  0  0  0  0  0
    0.4353   -3.3592   -0.5177 H   0  0  0  0  0  0  0  0  0  0  0  0
    0.4957   -1.6043   -0.9174 H   0  0  0  0  0  0  0  0  0  0  0  0
    0.9590   -2.8263   -2.1602 H   0  0  0  0  0  0  0  0  0  0  0  0
   -1.2922   -2.0857   -2.7406 H   0  0  0  0  0  0  0  0  0  0  0  0
   -1.4138   -3.7304   -2.0749 H   0  0  0  0  0  0  0  0  0  0  0  0
    4.5872    0.7124   -2.4334 H   0  0  0  0  0  0  0  0  0  0  0  0
    3.8767   -1.7392   -0.7866 H   0  0  0  0  0  0  0  0  0  0  0  0
    4.8765   -0.2690   -0.2989 H   0  0  0  0  0  0  0  0  0  0  0  0
   -2.6793   -4.4154    2.5730 H   0  0  0  0  0  0  0  0  0  0  0  0
   -3.9806   -3.3554    3.2289 H   0  0  0  0  0  0  0  0  0  0  0  0
   -5.4372    0.5149    0.8234 H   0  0  0  0  0  0  0  0  0  0  0  0
   -4.7138    0.9842   -0.7487 H   0  0  0  0  0  0  0  0  0  0  0  0
    2.2944   -1.4469   -4.9258 H   0  0  0  0  0  0  0  0  0  0  0  0
  4  5  1  0
  5  6  2  0
  2  8  1  0
  2  9  1  0
  3 10  2  0
  6 10  1  0
  3 11  1  0
  4 11  2  0
 11 12  1  0
 13 14  1  0
 14 15  1  0
  1 15  2  0
  1 17  1  0
  7 18  1  0
 18 19  1  0
 18 20  1  0
 15 21  1  0
 16 21  2  0
 16 22  1  0
 16 23  1  0
 17 23  2  0
 17 24  1  0
  6 25  1  0
  7 25  1  0
 19 25  1  0
  1 26  1  0
  8 26  1  0
  9 27  1  0
 10 27  1  0
 20 28  2  0
 20 29  1  0
  2 30  1  0
  2 31  1  0
  3 32  1  0
  4 33  1  0
  5 34  1  0
  7 35  1  0
  7 36  1  0
  8 37  1  0
  8 38  1  0
  9 39  1  0
  9 40  1  0
 12 41  1  0
 12 42  1  0
 12 43  1  0
 13 44  1  0
 13 45  1  0
 13 46  1  0
 14 47  1  0
 14 48  1  0
 18 49  1  0
 19 50  1  0
 19 51  1  0
 22 52  1  0
 22 53  1  0
 24 54  1  0
 24 55  1  0
 29 56  1  0
M  END
