
     RDKit          3D

 21 22  0  0  0  0  0  0  0  0999 V2000
   13.6881   69.3799   30.9616 O   0  0  0  0  0  0  0  0  0  0  0  0
   14.6991   69.2701   32.1910 P   0  0  0  0  0  5  0  0  0  0  0  0
   15.7723   68.2571   32.0094 O   0  0  0  0  0  0  0  0  0  0  0  0
   13.7097   68.9526   33.4003 O   0  0  0  0  0  0  0  0  0  0  0  0
   15.1677   70.7715   32.4746 O   0  0  0  0  0  0  0  0  0  0  0  0
   16.5273   70.9606   32.8408 C   0  0  0  0  0  0  0  0  0  0  0  0
   16.9691   72.4043   32.5862 C   0  0  1  0  0  0  0  0  0  0  0  0
   15.7922   73.2428   32.5149 O   0  0  0  0  0  0  0  0  0  0  0  0
   17.8597   72.9763   33.6817 C   0  0  1  0  0  0  0  0  0  0  0  0
   18.7390   73.9655   33.1211 O   0  0  0  0  0  0  0  0  0  0  0  0
   16.8830   73.6561   34.6206 C   0  0  1  0  0  0  0  0  0  0  0  0
   17.5520   74.7091   35.3259 O   0  0  0  0  0  0  0  0  0  0  0  0
   15.7792   74.1267   33.6537 C   0  0  2  0  0  0  0  0  0  0  0  0
   14.4551   74.1624   34.2781 N   0  0  0  0  0  0  0  0  0  0  0  0
   13.9843   75.4094   34.6983 C   0  0  0  0  0  0  0  0  0  0  0  0
   12.7488   75.4860   35.2920 N   0  0  0  0  0  0  0  0  0  0  0  0
   12.0515   74.4077   35.4662 C   0  0  0  0  0  0  0  0  0  0  0  0
   12.5154   73.0689   35.0591 C   0  0  0  0  0  0  0  0  0  0  0  0
   13.7104   73.0206   34.4742 C   0  0  0  0  0  0  0  0  0  0  0  0
   14.6816   76.4162   34.5662 O   0  0  0  0  0  0  0  0  0  0  0  0
   10.8320   74.5473   36.0689 N   0  0  0  0  0  0  0  0  0  0  0  0
  1  2  1  0
  2  3  2  0
  2  4  1  0
  2  5  1  0
  5  6  1  0
  7  6  1  1
  7  8  1  0
  7  9  1  0
  9 10  1  6
  9 11  1  0
 11 12  1  6
  8 13  1  0
 11 13  1  0
 13 14  1  1
 14 15  4  0
 15 16  4  0
 16 17  4  0
 17 18  4  0
 14 19  4  0
 18 19  4  0
 15 20  2  0
 17 21  1  0
M  END
