7OFF_VCB_A_712
     RDKit          3D

 42 45  0  0  0  0  0  0  0  0999 V2000
   40.4924  -27.9920    9.1090 C   0  0  0  0  0  0  0  0  0  0  0  0
   33.2921  -20.3429    5.9161 C   0  0  0  0  0  0  0  0  0  0  0  0
   32.7674  -20.6523    7.1725 C   0  0  0  0  0  0  0  0  0  0  0  0
   33.5329  -21.3713    8.0955 C   0  0  0  0  0  0  0  0  0  0  0  0
   36.8338  -21.7020    9.3288 C   0  0  0  0  0  0  0  0  0  0  0  0
   37.2489  -26.3386    6.9861 C   0  0  0  0  0  0  0  0  0  0  0  0
   37.6232  -27.6515    6.6443 C   0  0  0  0  0  0  0  0  0  0  0  0
   38.7012  -28.2732    7.2876 C   0  0  0  0  0  0  0  0  0  0  0  0
   39.8601  -25.8758    9.7841 C   0  0  0  0  0  0  0  0  0  0  0  0
   39.8144  -24.7575   10.6248 C   0  0  0  0  0  0  0  0  0  0  0  0
   40.7439  -24.6665   11.6747 C   0  0  0  0  0  0  0  0  0  0  0  0
   39.3712  -27.5671    8.2830 C   0  0  0  0  0  0  0  0  0  0  0  0
   41.6797  -25.6959   11.8938 C   0  0  0  0  0  0  0  0  0  0  0  0
   41.6846  -26.8355   11.0752 C   0  0  0  0  0  0  0  0  0  0  0  0
   40.7621  -26.9014   10.0322 C   0  0  0  0  0  0  0  0  0  0  0  0
   38.9965  -26.2802    8.6532 C   0  0  0  0  0  0  0  0  0  0  0  0
   37.9433  -25.6229    7.9852 C   0  0  0  0  0  0  0  0  0  0  0  0
   37.6017  -24.2098    8.2193 C   0  0  0  0  0  0  0  0  0  0  0  0
   35.7212  -22.5415    8.7510 C   0  0  1  0  0  0  0  0  0  0  0  0
   34.8345  -21.8015    7.7634 C   0  0  0  0  0  0  0  0  0  0  0  0
   35.3556  -21.4669    6.5003 C   0  0  0  0  0  0  0  0  0  0  0  0
   34.5859  -20.7475    5.5814 C   0  0  0  0  0  0  0  0  0  0  0  0
   36.2314  -23.7800    8.1507 N   0  0  0  0  0  0  0  0  0  0  0  0
   41.0945  -29.0965    9.0514 O   0  0  0  0  0  0  0  0  0  0  0  0
   37.6574  -22.2095   10.3298 O   0  0  0  0  0  0  0  0  0  0  0  0
   36.9814  -20.5091    8.9483 O   0  0  0  0  0  0  0  0  0  0  0  0
   38.5242  -23.3753    8.4200 O   0  0  0  0  0  0  0  0  0  0  0  0
   32.6983  -19.7845    5.2040 H   0  0  0  0  0  0  0  0  0  0  0  0
   31.7675  -20.3306    7.4341 H   0  0  0  0  0  0  0  0  0  0  0  0
   33.1060  -21.5869    9.0663 H   0  0  0  0  0  0  0  0  0  0  0  0
   36.4364  -25.8695    6.4444 H   0  0  0  0  0  0  0  0  0  0  0  0
   37.0847  -28.1791    5.8678 H   0  0  0  0  0  0  0  0  0  0  0  0
   38.9988  -29.2791    7.0215 H   0  0  0  0  0  0  0  0  0  0  0  0
   39.0709  -23.9865   10.5096 H   0  0  0  0  0  0  0  0  0  0  0  0
   40.7291  -23.8061   12.3313 H   0  0  0  0  0  0  0  0  0  0  0  0
   42.3836  -25.6185   12.7122 H   0  0  0  0  0  0  0  0  0  0  0  0
   42.3764  -27.6472   11.2597 H   0  0  0  0  0  0  0  0  0  0  0  0
   35.0878  -22.8247    9.6215 H   0  0  0  0  0  0  0  0  0  0  0  0
   36.3618  -21.7611    6.2281 H   0  0  0  0  0  0  0  0  0  0  0  0
   34.9952  -20.4996    4.6105 H   0  0  0  0  0  0  0  0  0  0  0  0
   35.5600  -24.3616    7.5994 H   0  0  0  0  0  0  0  0  0  0  0  0
   38.1495  -21.5905   10.9627 H   0  0  0  0  0  0  0  0  0  0  0  0
  2  3  2  0
  3  4  1  0
  6  7  2  0
  7  8  1  0
  9 10  2  0
 10 11  1  0
  1 12  1  0
  8 12  2  0
 11 13  2  0
 13 14  1  0
 14 15  2  0
  9 15  1  0
  1 15  1  0
  9 16  1  0
 12 16  1  0
 16 17  2  0
  6 17  1  0
 17 18  1  0
  5 19  1  0
  4 20  2  0
 19 20  1  0
 20 21  1  0
  2 22  1  0
 21 22  2  0
 19 23  1  0
 18 23  1  0
  1 24  2  0
  5 25  1  0
  5 26  2  0
 18 27  2  0
  2 28  1  0
  3 29  1  0
  4 30  1  0
  6 31  1  0
  7 32  1  0
  8 33  1  0
 10 34  1  0
 11 35  1  0
 13 36  1  0
 14 37  1  0
 19 38  1  1
 21 39  1  0
 22 40  1  0
 23 41  1  0
 25 42  1  0
M  END
