1HVY_D16_D_417
     RDKit          3D

 54 56  0  0  0  0  0  0  0  0999 V2000
   63.0693   45.7137   24.2715 N   0  0  0  0  0  4  0  0  0  0  0  0
   62.0332   45.6936   25.1633 C   0  0  0  0  0  0  0  0  0  0  0  0
   60.7366   45.1085   24.8147 C   0  0  0  0  0  0  0  0  0  0  0  0
   62.1913   46.2193   26.4022 N   0  0  0  0  0  0  0  0  0  0  0  0
   63.3648   46.7815   26.7915 C   0  0  0  0  0  0  0  0  0  0  0  0
   63.4586   47.2729   28.0663 O   0  0  0  0  0  0  0  0  0  0  0  0
   64.4661   46.8458   25.9055 C   0  0  0  0  0  0  0  0  0  0  0  0
   65.6994   47.4555   26.2486 C   0  0  0  0  0  0  0  0  0  0  0  0
   66.7810   47.5094   25.2966 C   0  0  0  0  0  0  0  0  0  0  0  0
   66.5972   46.9259   24.0048 C   0  0  0  0  0  0  0  0  0  0  0  0
   65.3546   46.3129   23.6570 C   0  0  0  0  0  0  0  0  0  0  0  0
   64.2744   46.2728   24.5993 C   0  0  0  0  0  0  0  0  0  0  0  0
   68.0955   48.1721   25.5955 C   0  0  0  0  0  0  0  0  0  0  0  0
   68.9322   47.5572   26.6679 N   0  0  0  0  0  0  0  0  0  0  0  0
   67.8609   43.9477   27.6754 C   0  0  0  0  0  0  0  0  0  0  0  0
   67.5628   45.1481   26.5209 S   0  0  0  0  0  0  0  0  0  0  0  0
   68.6823   46.2963   27.1905 C   0  0  0  0  0  0  0  0  0  0  0  0
   69.2885   45.7527   28.3091 C   0  0  0  0  0  0  0  0  0  0  0  0
   68.7995   44.3578   28.5982 C   0  0  0  0  0  0  0  0  0  0  0  0
   67.1959   42.6569   27.7001 C   0  0  0  0  0  0  0  0  0  0  0  0
   65.9625   42.6134   27.8326 O   0  0  0  0  0  0  0  0  0  0  0  0
   67.9431   41.5534   27.5794 N   0  0  0  0  0  0  0  0  0  0  0  0
   68.2558   40.8662   26.2986 C   0  0  2  0  0  0  0  0  0  0  0  0
   67.2660   41.1075   25.1565 C   0  0  0  0  0  0  0  0  0  0  0  0
   66.6956   40.0061   24.3034 C   0  0  0  0  0  0  0  0  0  0  0  0
   67.6138   38.7818   24.3778 C   0  0  0  0  0  0  0  0  0  0  0  0
   68.3009   38.5799   25.3896 O   0  0  0  0  0  0  0  0  0  0  0  0
   67.6544   37.9985   23.4228 O   0  0  0  0  0  0  0  0  0  0  0  0
   68.2643   39.3741   26.5898 C   0  0  0  0  0  0  0  0  0  0  0  0
   67.4600   38.6383   25.9916 O   0  0  0  0  0  0  0  0  0  0  0  0
   69.0719   38.9335   27.4085 O   0  0  0  0  0  0  0  0  0  0  0  0
   70.0610   48.3672   27.1459 C   0  0  0  0  0  0  0  0  0  0  0  0
   62.9463   45.3190   23.3781 H   0  0  0  0  0  0  0  0  0  0  0  0
   60.7702   44.7391   23.8111 H   0  0  0  0  0  0  0  0  0  0  0  0
   60.5172   44.3031   25.4841 H   0  0  0  0  0  0  0  0  0  0  0  0
   59.9750   45.8559   24.8944 H   0  0  0  0  0  0  0  0  0  0  0  0
   65.8239   47.8643   27.1879 H   0  0  0  0  0  0  0  0  0  0  0  0
   67.3676   46.9476   23.3185 H   0  0  0  0  0  0  0  0  0  0  0  0
   65.2334   45.8958   22.7208 H   0  0  0  0  0  0  0  0  0  0  0  0
   68.6718   48.1689   24.6938 H   0  0  0  0  0  0  0  0  0  0  0  0
   67.8412   49.1444   25.9625 H   0  0  0  0  0  0  0  0  0  0  0  0
   69.9937   46.2457   28.8791 H   0  0  0  0  0  0  0  0  0  0  0  0
   69.1264   43.7807   29.3889 H   0  0  0  0  0  0  0  0  0  0  0  0
   68.3152   41.1657   28.4043 H   0  0  0  0  0  0  0  0  0  0  0  0
   69.1905   41.2633   25.9619 H   0  0  0  0  0  0  0  0  0  0  0  0
   66.4251   41.6005   25.5979 H   0  0  0  0  0  0  0  0  0  0  0  0
   67.8847   41.6193   24.4494 H   0  0  0  0  0  0  0  0  0  0  0  0
   65.7216   39.7448   24.6611 H   0  0  0  0  0  0  0  0  0  0  0  0
   66.6230   40.3390   23.2891 H   0  0  0  0  0  0  0  0  0  0  0  0
   67.1314   38.1596   22.6622 H   0  0  0  0  0  0  0  0  0  0  0  0
   69.6646   39.5157   27.8419 H   0  0  0  0  0  0  0  0  0  0  0  0
   70.0794   49.2990   26.6200 H   0  0  0  0  0  0  0  0  0  0  0  0
   69.9493   48.5514   28.1939 H   0  0  0  0  0  0  0  0  0  0  0  0
   70.9765   47.8412   26.9717 H   0  0  0  0  0  0  0  0  0  0  0  0
  1  2  4  0
  2  3  1  0
  2  4  4  0
  4  5  4  0
  5  6  2  0
  5  7  4  0
  7  8  4  0
  8  9  4  0
  9 10  4  0
 10 11  4  0
  1 12  4  0
  7 12  4  0
 11 12  4  0
  9 13  1  0
 13 14  1  0
 15 16  4  0
 14 17  1  0
 16 17  4  0
 17 18  4  0
 15 19  4  0
 18 19  4  0
 15 20  1  0
 20 21  2  0
 20 22  1  0
 22 23  1  0
 23 24  1  0
 24 25  1  0
 25 26  1  0
 26 27  2  0
 26 28  1  0
 23 29  1  0
 29 30  2  0
 29 31  1  0
 14 32  1  0
  1 33  1  0
  3 34  1  0
  3 35  1  0
  3 36  1  0
  8 37  1  0
 10 38  1  0
 11 39  1  0
 13 40  1  0
 13 41  1  0
 18 42  1  0
 19 43  1  0
 22 44  1  0
 23 45  1  1
 24 46  1  0
 24 47  1  0
 25 48  1  0
 25 49  1  0
 28 50  1  0
 31 51  1  0
 32 52  1  0
 32 53  1  0
 32 54  1  0
M  CHG  1   1   1
M  END
