1HWW_SWA_A_1103
     RDKit          3D

 12 13  0  0  0  0  0  0  0  0999 V2000
   29.5438   66.6526    8.4527 C   0  0  1  0  0  0  0  0  0  0  0  0
   28.5877   67.6065    8.8584 O   0  0  0  0  0  0  0  0  0  0  0  0
   30.8811   67.0242    8.9434 C   0  0  1  0  0  0  0  0  0  0  0  0
   31.6118   66.0684    9.6789 N   0  0  0  0  0  0  0  0  0  0  0  0
   31.2242   64.7017    9.4792 C   0  0  0  0  0  0  0  0  0  0  0  0
   29.7752   64.6608    9.9566 C   0  0  0  0  0  0  0  0  0  0  0  0
   29.0138   65.3180    8.8150 C   0  0  0  0  0  0  0  0  0  0  0  0
   33.0127   66.3147    9.5396 C   0  0  0  0  0  0  0  0  0  0  0  0
   33.2127   67.0881    8.2675 C   0  0  1  0  0  0  0  0  0  0  0  0
   33.8712   66.3364    7.2902 O   0  0  0  0  0  0  0  0  0  0  0  0
   31.8250   67.3698    7.7947 C   0  0  1  0  0  0  0  0  0  0  0  0
   31.4695   66.5339    6.7197 O   0  0  0  0  0  0  0  0  0  0  0  0
  1  2  1  1
  1  3  1  0
  3  4  1  6
  4  5  1  0
  5  6  1  0
  1  7  1  0
  6  7  1  0
  4  8  1  0
  8  9  1  0
  9 10  1  6
  3 11  1  0
  9 11  1  0
 11 12  1  6
M  END
$$$$
