1HWW_SWA_A_1103
     RDKit          3D

 12 13  0  0  0  0  0  0  0  0999 V2000
   29.9321   67.1038    8.4208 C   0  0  1  0  0  0  0  0  0  0  0  0
   28.9360   66.5233    9.2328 O   0  0  0  0  0  0  0  0  0  0  0  0
   31.0754   66.1876    8.2757 C   0  0  1  0  0  0  0  0  0  0  0  0
   31.5161   65.8708    6.9742 N   0  0  0  0  0  0  0  0  0  0  0  0
   31.1535   66.8077    5.9501 C   0  0  0  0  0  0  0  0  0  0  0  0
   29.6276   66.7789    5.9541 C   0  0  0  0  0  0  0  0  0  0  0  0
   29.2674   67.5900    7.1900 C   0  0  0  0  0  0  0  0  0  0  0  0
   32.9031   65.5272    7.0006 C   0  0  0  0  0  0  0  0  0  0  0  0
   33.5030   66.1578    8.2248 C   0  0  1  0  0  0  0  0  0  0  0  0
   34.3938   67.1869    7.9065 O   0  0  0  0  0  0  0  0  0  0  0  0
   32.3315   66.7477    8.9377 C   0  0  1  0  0  0  0  0  0  0  0  0
   32.2812   68.1445    8.7739 O   0  0  0  0  0  0  0  0  0  0  0  0
  1  2  1  1
  1  3  1  0
  3  4  1  6
  4  5  1  0
  5  6  1  0
  1  7  1  0
  6  7  1  0
  4  8  1  0
  8  9  1  0
  9 10  1  6
  3 11  1  0
  9 11  1  0
 11 12  1  6
M  END
$$$$
