1HWW_SWA_A_1103
     RDKit          3D

 12 13  0  0  0  0  0  0  0  0999 V2000
   51.5433   69.7990    4.3732 C   0  0  1  0  0  0  0  0  0  0  0  0
   51.5313   69.6620    2.9698 O   0  0  0  0  0  0  0  0  0  0  0  0
   50.1683   69.8652    4.8951 C   0  0  1  0  0  0  0  0  0  0  0  0
   49.7995   68.9702    5.9204 N   0  0  0  0  0  0  0  0  0  0  0  0
   50.8818   68.4236    6.6871 C   0  0  0  0  0  0  0  0  0  0  0  0
   51.7041   67.6528    5.6581 C   0  0  0  0  0  0  0  0  0  0  0  0
   52.4431   68.7519    4.9091 C   0  0  0  0  0  0  0  0  0  0  0  0
   48.7437   69.5339    6.7016 C   0  0  0  0  0  0  0  0  0  0  0  0
   48.8023   71.0254    6.5337 C   0  0  1  0  0  0  0  0  0  0  0  0
   49.1911   71.6744    7.7091 O   0  0  0  0  0  0  0  0  0  0  0  0
   49.8639   71.2312    5.5045 C   0  0  1  0  0  0  0  0  0  0  0  0
   51.0620   71.6854    6.0867 O   0  0  0  0  0  0  0  0  0  0  0  0
  1  2  1  6
  1  3  1  0
  3  4  1  1
  4  5  1  0
  5  6  1  0
  1  7  1  0
  6  7  1  0
  4  8  1  0
  8  9  1  0
  9 10  1  1
  3 11  1  0
  9 11  1  0
 11 12  1  1
M  END
$$$$
