1HWW_SWA_A_1103
     RDKit          3D

 12 13  0  0  0  0  0  0  0  0999 V2000
   19.4360   65.4179   14.8168 C   0  0  1  0  0  0  0  0  0  0  0  0
   20.5302   65.9280   15.5456 O   0  0  0  0  0  0  0  0  0  0  0  0
   19.0002   64.1288   15.3787 C   0  0  1  0  0  0  0  0  0  0  0  0
   17.6418   63.9764   15.7248 N   0  0  0  0  0  0  0  0  0  0  0  0
   16.7304   64.8729   15.0739 C   0  0  0  0  0  0  0  0  0  0  0  0
   17.1855   66.2542   15.5369 C   0  0  0  0  0  0  0  0  0  0  0  0
   18.4361   66.5048   14.7073 C   0  0  0  0  0  0  0  0  0  0  0  0
   17.2728   62.5976   15.6509 C   0  0  0  0  0  0  0  0  0  0  0  0
   18.2369   61.9197   14.7197 C   0  0  1  0  0  0  0  0  0  0  0  0
   17.6255   61.5135   13.5302 O   0  0  0  0  0  0  0  0  0  0  0  0
   19.2373   62.9809   14.4008 C   0  0  1  0  0  0  0  0  0  0  0  0
   19.0348   63.5061   13.1110 O   0  0  0  0  0  0  0  0  0  0  0  0
  1  2  1  1
  1  3  1  0
  3  4  1  6
  4  5  1  0
  5  6  1  0
  1  7  1  0
  6  7  1  0
  4  8  1  0
  8  9  1  0
  9 10  1  6
  3 11  1  0
  9 11  1  0
 11 12  1  6
M  END
$$$$
