1HWW_SWA_A_1103
     RDKit          3D

 12 13  0  0  0  0  0  0  0  0999 V2000
   30.0043   75.4216  -24.1994 C   0  0  1  0  0  0  0  0  0  0  0  0
   29.9591   74.2259  -23.4530 O   0  0  0  0  0  0  0  0  0  0  0  0
   30.1720   75.1272  -25.6321 C   0  0  1  0  0  0  0  0  0  0  0  0
   29.2539   75.6915  -26.5415 N   0  0  0  0  0  0  0  0  0  0  0  0
   28.5557   76.8557  -26.0777 C   0  0  0  0  0  0  0  0  0  0  0  0
   27.7750   76.3534  -24.8662 C   0  0  0  0  0  0  0  0  0  0  0  0
   28.8417   76.2410  -23.7871 C   0  0  0  0  0  0  0  0  0  0  0  0
   29.8677   75.8388  -27.8238 C   0  0  0  0  0  0  0  0  0  0  0  0
   31.3539   75.8895  -27.6118 C   0  0  1  0  0  0  0  0  0  0  0  0
   31.8850   77.1513  -27.8938 O   0  0  0  0  0  0  0  0  0  0  0  0
   31.5196   75.6200  -26.1528 C   0  0  1  0  0  0  0  0  0  0  0  0
   31.8155   76.7990  -25.4436 O   0  0  0  0  0  0  0  0  0  0  0  0
  1  2  1  1
  1  3  1  0
  3  4  1  6
  4  5  1  0
  5  6  1  0
  1  7  1  0
  6  7  1  0
  4  8  1  0
  8  9  1  0
  9 10  1  1
  3 11  1  0
  9 11  1  0
 11 12  1  1
M  END
$$$$
