
     RDKit          3D

 40 42  0  0  0  0  0  0  0  0999 V2000
   96.4709    8.2260   31.2532 C   0  0  1  0  0  0  0  0  0  0  0  0
   97.9887    8.4286   31.0375 C   0  0  1  0  0  0  0  0  0  0  0  0
   98.5105    7.4169   30.0132 C   0  0  2  0  0  0  0  0  0  0  0  0
   98.1553    5.9930   30.4548 C   0  0  1  0  0  0  0  0  0  0  0  0
   96.6373    5.9084   30.6755 C   0  0  1  0  0  0  0  0  0  0  0  0
   96.2102    4.5216   31.1892 C   0  0  0  0  0  0  0  0  0  0  0  0
   98.6029    5.0676   29.4581 O   0  0  0  0  0  0  0  0  0  0  0  0
   95.7583    8.5293   30.0522 O   0  0  0  0  0  0  0  0  0  0  0  0
   96.2382    6.8773   31.6665 O   0  0  0  0  0  0  0  0  0  0  0  0
   94.8354    4.2130   30.7684 N   0  0  0  0  0  0  0  0  0  0  0  0
   91.6873    7.4975   29.3448 C   0  0  1  0  0  0  0  0  0  0  0  0
   90.3190    7.8055   28.9107 N   0  0  0  0  0  0  0  0  0  0  0  0
   92.6566    7.2707   28.1760 C   0  0  0  0  0  0  0  0  0  0  0  0
   94.0521    7.8934   28.3715 C   0  0  0  0  0  0  0  0  0  0  0  0
   94.9430    7.3253   27.3439 N   0  0  0  0  0  0  0  0  0  0  0  0
   94.5802    7.7266   29.8248 C   0  0  2  0  0  0  0  0  0  0  0  0
   93.5514    8.2236   30.8708 C   0  0  2  0  0  0  0  0  0  0  0  0
   93.3598    7.1979   31.8642 O   0  0  0  0  0  0  0  0  0  0  0  0
   92.1930    8.6132   30.2749 C   0  0  2  0  0  0  0  0  0  0  0  0
   91.2187    8.7585   31.3185 O   0  0  0  0  0  0  0  0  0  0  0  0
   91.1936   10.0313   31.9628 C   0  0  2  0  0  0  0  0  0  0  0  0
   90.1000   10.0800   33.0746 C   0  0  2  0  0  0  0  0  0  0  0  0
   89.0007    9.1947   32.7799 O   0  0  0  0  0  0  0  0  0  0  0  0
   89.5578   11.5099   33.2469 C   0  0  1  0  0  0  0  0  0  0  0  0
   90.5393   12.3887   33.9313 N   0  0  0  0  0  0  0  0  0  0  0  0
   89.0940   12.0977   31.8754 C   0  0  1  0  0  0  0  0  0  0  0  0
   89.5117   13.4759   31.8117 O   0  0  0  0  0  0  0  0  0  0  0  0
   89.6522   11.3082   30.6747 C   0  0  2  0  0  0  0  0  0  0  0  0
   91.0355   11.0226   30.9414 O   0  0  0  0  0  0  0  0  0  0  0  0
   89.5691   12.0950   29.3606 C   0  0  0  0  0  0  0  0  0  0  0  0
   90.7886   12.8139   29.1635 O   0  0  0  0  0  0  0  0  0  0  0  0
   98.3189    9.7583   30.6125 O   0  0  0  0  0  0  0  0  0  0  0  0
   99.9400    7.5579   29.8963 O   0  0  0  0  0  0  0  0  0  0  0  0
   86.3113   10.2375   28.4815 N   0  0  0  0  0  0  0  0  0  0  0  0
   89.6512    7.0307   27.9900 C   0  0  0  0  0  0  0  0  0  0  0  0
   89.7182    5.8012   27.9516 O   0  0  0  0  0  0  0  0  0  0  0  0
   88.8361    7.8044   26.9315 C   0  0  0  0  0  0  0  0  0  0  0  0
   87.4984    8.2786   27.4988 C   0  0  0  0  0  0  0  0  0  0  0  0
   87.5948    9.5411   28.3568 C   0  0  0  0  0  0  0  0  0  0  0  0
   88.5877    6.9583   25.8016 O   0  0  0  0  0  0  0  0  0  0  0  0
  1  2  1  0
  2  3  1  0
  3  4  1  0
  4  5  1  0
  5  6  1  1
  4  7  1  6
  1  8  1  6
  5  9  1  0
  1  9  1  0
  6 10  1  0
 11 12  1  6
 11 13  1  0
 13 14  1  0
 14 15  1  0
 14 16  1  0
 16  8  1  6
 16 17  1  0
 17 18  1  1
 11 19  1  0
 17 19  1  0
 19 20  1  1
 21 20  1  6
 21 22  1  0
 22 23  1  6
 22 24  1  0
 24 25  1  6
 24 26  1  0
 26 27  1  6
 26 28  1  0
 21 29  1  0
 28 29  1  0
 28 30  1  6
 30 31  1  0
  2 32  1  6
  3 33  1  1
 12 35  1  0
 35 36  2  0
 35 37  1  0
 37 38  1  0
 38 39  1  0
 34 39  1  0
 37 40  1  0
M  END
