
     RDKit          3D

 32 34  0  0  0  0  0  0  0  0999 V2000
   -8.5743    3.1243    4.0646 C   0  0  0  0  0  0  0  0  0  0  0  0
   -7.1581    3.5593    4.0381 C   0  0  0  0  0  0  0  0  0  0  0  0
   -5.4870    4.6021    2.8956 C   0  0  0  0  0  0  0  0  0  0  0  0
   -6.3503    5.3000    0.3300 C   0  0  0  0  0  0  0  0  0  0  0  0
   -3.8675    4.7348    0.8112 O   0  0  0  0  0  0  0  0  0  0  0  0
   -4.8269    6.8782    1.7531 O   0  0  0  0  0  0  0  0  0  0  0  0
   -4.9831    3.8454    4.9603 C   0  0  0  0  0  0  0  0  0  0  0  0
  -17.2192    1.3772    6.1366 C   0  0  0  0  0  0  0  0  0  0  0  0
  -15.5859    0.4138    4.6073 C   0  0  0  0  0  0  0  0  0  0  0  0
  -14.1347   -0.0226    4.3715 C   0  0  0  0  0  0  0  0  0  0  0  0
  -13.0946    0.8876    5.0275 C   0  0  0  0  0  0  0  0  0  0  0  0
  -11.2861    2.2472    4.1754 C   0  0  0  0  0  0  0  0  0  0  0  0
  -10.5546    2.4200    5.3431 C   0  0  0  0  0  0  0  0  0  0  0  0
   -9.2209    2.8524    5.2857 C   0  0  0  0  0  0  0  0  0  0  0  0
   -4.1756    4.6705    7.0963 C   0  0  0  0  0  0  0  0  0  0  0  0
   -5.1815    4.1386    8.1185 C   0  0  0  0  0  0  0  0  0  0  0  0
   -4.9207    2.6961    8.5560 C   0  0  0  0  0  0  0  0  0  0  0  0
   -5.8836    0.4743    7.8683 C   0  0  0  0  0  0  0  0  0  0  0  0
   -7.1624    0.0295    7.6360 C   0  0  0  0  0  0  0  0  0  0  0  0
   -7.9815    1.1376    7.9195 C   0  0  0  0  0  0  0  0  0  0  0  0
   -6.2771    3.3682    5.0936 C   0  0  0  0  0  0  0  0  0  0  0  0
   -9.3304    2.9325    2.8973 C   0  0  0  0  0  0  0  0  0  0  0  0
  -10.6627    2.5020    2.9545 C   0  0  0  0  0  0  0  0  0  0  0  0
  -15.7345   -0.3453    6.8855 C   0  0  0  0  0  0  0  0  0  0  0  0
  -15.8740    0.8144    5.9968 N   0  0  0  0  0  0  0  0  0  0  0  0
   -6.7594    4.1744    2.9084 N   0  0  0  0  0  0  0  0  0  0  0  0
   -4.5691    4.4992    3.8724 N   0  0  0  0  0  0  0  0  0  0  0  0
   -4.0413    3.7300    5.9807 N   0  0  0  0  0  0  0  0  0  0  0  0
   -6.0030    1.7823    8.2477 N   0  0  0  0  0  0  0  0  0  0  0  0
   -7.2800    2.2122    8.2864 N   0  0  0  0  0  0  0  0  0  0  0  0
  -12.5721    1.8083    4.0675 O   0  0  0  0  0  0  0  0  0  0  0  0
   -4.9647    5.4669    1.4266 S   0  0  0  0  0  6  0  0  0  0  0  0
  1  2  1  0
  9 10  1  0
 10 11  1  0
 12 13  4  0
 13 14  4  0
  1 14  4  0
 15 16  1  0
 16 17  1  0
 18 19  4  0
 19 20  4  0
  2 21  4  0
  7 21  4  0
  1 22  4  0
 12 23  4  0
 22 23  4  0
 24 25  1  0
  8 25  1  0
  9 25  1  0
  2 26  4  0
  3 26  4  0
  7 27  4  0
  3 27  4  0
 15 28  1  0
  7 28  1  0
 17 29  1  0
 18 29  4  0
 20 30  4  0
 29 30  4  0
 11 31  1  0
 12 31  1  0
  3 32  1  0
  4 32  1  0
  6 32  2  0
  5 32  2  0
M  END
