7BHX_TO5_A_402
     RDKit          3D

 34 36  0  0  0  0  0  0  0  0999 V2000
   -1.5167    2.9808   -1.9651 C   0  0  0  0  0  0  0  0  0  0  0  0
   -0.8147    0.6379   -1.4679 C   0  0  0  0  0  0  0  0  0  0  0  0
   -1.5405   -1.3588   -0.4149 C   0  0  0  0  0  0  0  0  0  0  0  0
   -0.0747   -4.4484    3.2619 C   0  0  0  0  0  0  0  0  0  0  0  0
   -0.6209   -2.2022    2.7164 C   0  0  0  0  0  0  0  0  0  0  0  0
    0.5169   -0.3865    0.2818 C   0  0  0  0  0  0  0  0  0  0  0  0
    1.6872   -0.3857    1.0770 C   0  0  0  0  0  0  0  0  0  0  0  0
    2.6528    0.6128    0.9263 C   0  0  0  0  0  0  0  0  0  0  0  0
    2.4771    1.6196   -0.0220 C   0  0  0  0  0  0  0  0  0  0  0  0
    1.3349    1.6381   -0.8215 C   0  0  0  0  0  0  0  0  0  0  0  0
    0.3441    0.6491   -0.6720 C   0  0  0  0  0  0  0  0  0  0  0  0
    4.0965    0.5933    1.9231 Cl  0  0  0  0  0  0  0  0  0  0  0  0
   -1.0726    1.6685   -2.4346 N   0  0  0  0  0  0  0  0  0  0  0  0
   -1.3946    1.2786   -3.8057 C   0  0  0  0  0  0  0  0  0  0  0  0
   -0.4389   -1.3720    0.3996 N   0  0  0  0  0  0  0  0  0  0  0  0
   -2.4172   -2.2616   -0.3267 O   0  0  0  0  0  0  0  0  0  0  0  0
   -1.7110   -0.3685   -1.3238 N   0  0  0  0  0  0  0  0  0  0  0  0
   -0.3095   -2.4302    1.3690 C   0  0  0  0  0  0  0  0  0  0  0  0
   -0.4965   -3.2072    3.6244 N   0  0  0  0  0  0  0  0  0  0  0  0
    0.2428   -4.7188    1.9286 C   0  0  0  0  0  0  0  0  0  0  0  0
    0.1231   -3.7034    0.9779 C   0  0  0  0  0  0  0  0  0  0  0  0
   -2.6257    3.0034   -1.9131 H   0  0  0  0  0  0  0  0  0  0  0  0
   -1.1088    3.2009   -0.9556 H   0  0  0  0  0  0  0  0  0  0  0  0
   -1.1667    3.7714   -2.6620 H   0  0  0  0  0  0  0  0  0  0  0  0
    0.0136   -5.2258    4.0089 H   0  0  0  0  0  0  0  0  0  0  0  0
   -0.9591   -1.2266    3.0401 H   0  0  0  0  0  0  0  0  0  0  0  0
    1.8672   -1.1591    1.8115 H   0  0  0  0  0  0  0  0  0  0  0  0
    3.2302    2.3876   -0.1454 H   0  0  0  0  0  0  0  0  0  0  0  0
    1.2382    2.4227   -1.5606 H   0  0  0  0  0  0  0  0  0  0  0  0
   -2.4759    1.0379   -3.8840 H   0  0  0  0  0  0  0  0  0  0  0  0
   -0.7994    0.3887   -4.1033 H   0  0  0  0  0  0  0  0  0  0  0  0
   -1.1522    2.1061   -4.5057 H   0  0  0  0  0  0  0  0  0  0  0  0
    0.5783   -5.7052    1.6356 H   0  0  0  0  0  0  0  0  0  0  0  0
    0.3679   -3.9021   -0.0578 H   0  0  0  0  0  0  0  0  0  0  0  0
  6  7  2  0
  7  8  1  0
  8  9  2  0
  9 10  1  0
  2 11  1  0
 10 11  2  0
  6 11  1  0
  8 12  1  0
  1 13  1  0
  2 13  1  0
 13 14  1  0
  3 15  1  0
  6 15  1  0
  3 16  2  0
  2 17  2  0
  3 17  1  0
 15 18  1  0
  5 18  2  0
  5 19  1  0
  4 19  2  0
  4 20  1  0
 18 21  1  0
 20 21  2  0
  1 22  1  0
  1 23  1  0
  1 24  1  0
  4 25  1  0
  5 26  1  0
  7 27  1  0
  9 28  1  0
 10 29  1  0
 14 30  1  0
 14 31  1  0
 14 32  1  0
 20 33  1  0
 21 34  1  0
M  END
