7JY3_VUD_A_204
     RDKit          3D

 43 46  0  0  0  0  0  0  0  0999 V2000
    1.3440  -21.0812   46.7079 C   0  0  0  0  0  0  0  0  0  0  0  0
    0.4712  -20.4943   44.2074 C   0  0  0  0  0  0  0  0  0  0  0  0
    1.2637  -19.5524   44.8662 C   0  0  0  0  0  0  0  0  0  0  0  0
    3.1419  -21.2568   49.6874 C   0  0  0  0  0  0  0  0  0  0  0  0
    1.2886  -24.0553   47.0218 O   0  0  0  0  0  0  0  0  0  0  0  0
    5.1198  -19.4579   48.1297 C   0  0  0  0  0  0  0  0  0  0  0  0
    5.9587  -20.1768   48.9474 C   0  0  0  0  0  0  0  0  0  0  0  0
    3.7005  -21.3448   47.7826 C   0  0  0  0  0  0  0  0  0  0  0  0
    2.3379  -23.2982   47.4975 C   0  0  0  0  0  0  0  0  0  0  0  0
    4.0207  -19.9867   47.5346 C   0  0  0  0  0  0  0  0  0  0  0  0
   -0.3046  -24.2594   45.2943 C   0  0  0  0  0  0  0  0  0  0  0  0
    0.1575  -23.3945   46.4478 C   0  0  2  0  0  0  0  0  0  0  0  0
    0.5592  -22.0035   45.9900 C   0  0  0  0  0  0  0  0  0  0  0  0
    1.6837  -19.8521   46.1519 C   0  0  0  0  0  0  0  0  0  0  0  0
    0.1363  -21.6789   44.7602 N   0  0  0  0  0  4  0  0  0  0  0  0
   -0.0343  -20.2267   43.0285 O   0  0  0  0  0  0  0  0  0  0  0  0
    1.8876  -21.4202   47.9848 N   0  0  0  0  0  4  0  0  0  0  0  0
    1.6065  -22.5053   48.7522 C   0  0  0  0  0  0  0  0  0  0  0  0
    2.4015  -22.4271   49.8551 C   0  0  0  0  0  0  0  0  0  0  0  0
    2.8356  -20.6265   48.5584 N   0  0  0  0  0  0  0  0  0  0  0  0
    2.5749  -21.9822   47.2109 C   0  0  0  0  0  0  0  0  0  0  0  0
    5.6743  -21.4868   49.2116 C   0  0  0  0  0  0  0  0  0  0  0  0
    4.5418  -22.1059   48.6389 C   0  0  0  0  0  0  0  0  0  0  0  0
    4.2958  -23.4268   48.9174 N   0  0  0  0  0  0  0  0  0  0  0  0
    3.2292  -23.9958   48.3493 C   0  0  0  0  0  0  0  0  0  0  0  0
    3.0265  -25.3088   48.5426 N   0  0  0  0  0  0  0  0  0  0  0  0
    5.3967  -18.1479   47.9241 F   0  0  0  0  0  0  0  0  0  0  0  0
    1.5271  -18.6643   44.4115 H   0  0  0  0  0  0  0  0  0  0  0  0
    3.8460  -20.9196   50.3623 H   0  0  0  0  0  0  0  0  0  0  0  0
    6.7946  -19.7318   49.3576 H   0  0  0  0  0  0  0  0  0  0  0  0
    3.4299  -19.4113   46.9140 H   0  0  0  0  0  0  0  0  0  0  0  0
   -0.5769  -25.2270   45.6610 H   0  0  0  0  0  0  0  0  0  0  0  0
   -1.1517  -23.8047   44.8244 H   0  0  0  0  0  0  0  0  0  0  0  0
    0.4880  -24.3579   44.5824 H   0  0  0  0  0  0  0  0  0  0  0  0
   -0.6394  -23.2698   47.1509 H   0  0  0  0  0  0  0  0  0  0  0  0
    2.2420  -19.1718   46.6909 H   0  0  0  0  0  0  0  0  0  0  0  0
   -0.4243  -22.3111   44.2550 H   0  0  0  0  0  0  0  0  0  0  0  0
    0.9213  -23.2471   48.5399 H   0  0  0  0  0  0  0  0  0  0  0  0
    2.4466  -23.0905   50.6445 H   0  0  0  0  0  0  0  0  0  0  0  0
    1.9407  -21.4610   46.5855 H   0  0  0  0  0  0  0  0  0  0  0  0
    6.2928  -22.0287   49.8353 H   0  0  0  0  0  0  0  0  0  0  0  0
    2.2477  -25.7518   48.1347 H   0  0  0  0  0  0  0  0  0  0  0  0
    3.6567  -25.8285   49.0922 H   0  0  0  0  0  0  0  0  0  0  0  0
  2  3  4  0
  6  7  4  0
  5  9  1  0
  8 10  4  0
  6 10  4  0
 12 11  1  0
  5 12  1  0
  1 13  4  0
 12 13  1  0
  1 14  4  0
  3 14  4  0
 13 15  4  0
  2 15  4  0
  2 16  2  0
  1 17  1  0
 17 18  4  0
 18 19  4  0
  4 19  4  0
  4 20  4  0
 17 20  4  0
  9 21  4  0
  8 21  4  0
  7 22  4  0
  8 23  4  0
 22 23  4  0
 23 24  4  0
  9 25  4  0
 24 25  4  0
 25 26  1  0
  6 27  1  0
  3 28  1  0
  4 29  1  0
  7 30  1  0
 10 31  1  0
 11 32  1  0
 11 33  1  0
 11 34  1  0
 12 35  1  6
 14 36  1  0
 15 37  1  0
 18 38  1  0
 19 39  1  0
 21 40  1  0
 22 41  1  0
 26 42  1  0
 26 43  1  0
M  CHG  2  15   1  17   1
M  END
