6ZK5_IMH_A_402
     RDKit          3D

 19 21  0  0  0  0  0  0  0  0999 V2000
   -0.9487    3.6574    4.0927 O   0  0  0  0  0  0  0  0  0  0  0  0
   -1.0364    2.5392    3.2999 C   0  0  0  0  0  0  0  0  0  0  0  0
    0.3470    2.0911    2.8370 C   0  0  1  0  0  0  0  0  0  0  0  0
    0.8748    3.0710    1.9438 N   0  0  0  0  0  0  0  0  0  0  0  0
    1.2821    1.9651    4.0158 C   0  0  1  0  0  0  0  0  0  0  0  0
    1.3751    0.6037    4.3230 O   0  0  0  0  0  0  0  0  0  0  0  0
    2.5798    2.5148    3.4852 C   0  0  1  0  0  0  0  0  0  0  0  0
    3.4553    1.4331    3.3386 O   0  0  0  0  0  0  0  0  0  0  0  0
    2.3119    3.0963    2.1354 C   0  0  2  0  0  0  0  0  0  0  0  0
    2.7077    4.5467    2.0396 C   0  0  0  0  0  0  0  0  0  0  0  0
    1.8479    5.6372    2.0438 C   0  0  0  0  0  0  0  0  0  0  0  0
    2.6066    6.7342    1.9412 N   0  0  0  0  0  0  0  0  0  0  0  0
    3.8963    6.3828    1.8732 C   0  0  0  0  0  0  0  0  0  0  0  0
    5.0784    7.0827    1.7617 C   0  0  0  0  0  0  0  0  0  0  0  0
    5.0666    8.4872    1.6950 O   0  0  0  0  0  0  0  0  0  0  0  0
    6.2753    6.4648    1.7126 N   0  0  0  0  0  0  0  0  0  0  0  0
    6.3337    5.1243    1.7732 C   0  0  0  0  0  0  0  0  0  0  0  0
    5.1873    4.3961    1.8837 N   0  0  0  0  0  0  0  0  0  0  0  0
    3.9960    4.9889    1.9336 C   0  0  0  0  0  0  0  0  0  0  0  0
  1  2  1  0
  3  2  1  1
  3  4  1  0
  3  5  1  0
  5  6  1  6
  5  7  1  0
  7  8  1  6
  4  9  1  0
  7  9  1  0
  9 10  1  1
 10 11  2  0
 11 12  1  0
 12 13  1  0
 13 14  2  0
 14 15  1  0
 14 16  1  0
 16 17  2  0
 17 18  1  0
 10 19  1  0
 13 19  1  0
 18 19  2  0
M  END
$$$$
