7MOI_HPS_A_501
     RDKit          3D

 18 18  0  0  0  0  0  0  0  0999 V2000
   -1.2709    2.1519    0.9787 C   0  0  0  0  0  0  0  0  0  0  0  0
   -2.2367    1.6555    0.1003 C   0  0  0  0  0  0  0  0  0  0  0  0
   -1.9215    0.6005   -0.7592 C   0  0  0  0  0  0  0  0  0  0  0  0
   -0.6404    0.0393   -0.7428 C   0  0  0  0  0  0  0  0  0  0  0  0
    0.3404    0.5351    0.1411 C   0  0  0  0  0  0  0  0  0  0  0  0
    0.0109    1.5937    0.9982 C   0  0  0  0  0  0  0  0  0  0  0  0
    1.6420    0.0160    0.2053 O   0  0  0  0  0  0  0  0  0  0  0  0
    2.2302   -1.2770   -0.7684 P   0  0  0  0  0  5  0  0  0  0  0  0
    1.3151   -2.6698   -0.4746 O   0  0  0  0  0  0  0  0  0  0  0  0
    2.1201   -0.8573   -2.4043 O   0  0  0  0  0  0  0  0  0  0  0  0
    3.6757   -1.5454   -0.4167 O   0  0  0  0  0  0  0  0  0  0  0  0
   -1.5150    2.9694    1.6448 H   0  0  0  0  0  0  0  0  0  0  0  0
   -3.2288    2.0880    0.0857 H   0  0  0  0  0  0  0  0  0  0  0  0
   -2.6709    0.2165   -1.4394 H   0  0  0  0  0  0  0  0  0  0  0  0
   -0.4291   -0.7755   -1.4198 H   0  0  0  0  0  0  0  0  0  0  0  0
    0.7529    1.9854    1.6825 H   0  0  0  0  0  0  0  0  0  0  0  0
    1.6371   -3.3285   -1.1403 H   0  0  0  0  0  0  0  0  0  0  0  0
    2.5420    0.0368   -2.4640 H   0  0  0  0  0  0  0  0  0  0  0  0
  1  2  2  0
  2  3  1  0
  3  4  2  0
  4  5  1  0
  1  6  1  0
  5  6  2  0
  5  7  1  0
  7  8  1  0
  8  9  1  0
  8 10  1  0
  8 11  2  0
  1 12  1  0
  2 13  1  0
  3 14  1  0
  4 15  1  0
  6 16  1  0
  9 17  1  0
 10 18  1  0
M  END
