7P2I_MFU_C_102
     RDKit          3D

 26 26  0  0  0  0  0  0  0  0999 V2000
    0.0405   15.9891   44.7667 C   0  0  1  0  0  0  0  0  0  0  0  0
   -0.1571   17.1186   43.7624 C   0  0  1  0  0  0  0  0  0  0  0  0
    1.2032   17.5309   43.2086 C   0  0  2  0  0  0  0  0  0  0  0  0
    2.1714   17.8928   44.3411 C   0  0  2  0  0  0  0  0  0  0  0  0
    2.2900   16.6983   45.2832 C   0  0  1  0  0  0  0  0  0  0  0  0
    3.1774   16.9451   46.4857 C   0  0  0  0  0  0  0  0  0  0  0  0
    0.4868   14.8663   44.0623 O   0  0  0  0  0  0  0  0  0  0  0  0
   -1.0130   16.6778   42.7089 O   0  0  0  0  0  0  0  0  0  0  0  0
    1.0438   18.6048   42.2840 O   0  0  0  0  0  0  0  0  0  0  0  0
    1.6728   19.0095   45.0823 O   0  0  0  0  0  0  0  0  0  0  0  0
    0.9727   16.3703   45.7740 O   0  0  0  0  0  0  0  0  0  0  0  0
   -0.5733   14.1218   43.4456 C   0  0  0  0  0  0  0  0  0  0  0  0
   -0.8811   15.7646   45.2615 H   0  0  0  0  0  0  0  0  0  0  0  0
   -0.6113   17.9601   44.2417 H   0  0  0  0  0  0  0  0  0  0  0  0
    1.6310   16.7025   42.6842 H   0  0  0  0  0  0  0  0  0  0  0  0
    3.1243   18.1436   43.9240 H   0  0  0  0  0  0  0  0  0  0  0  0
    2.7336   15.9091   44.7135 H   0  0  0  0  0  0  0  0  0  0  0  0
    2.7623   17.7315   47.0803 H   0  0  0  0  0  0  0  0  0  0  0  0
    3.2415   16.0531   47.0709 H   0  0  0  0  0  0  0  0  0  0  0  0
    4.1562   17.2250   46.1564 H   0  0  0  0  0  0  0  0  0  0  0  0
   -0.6126   15.9141   42.2653 H   0  0  0  0  0  0  0  0  0  0  0  0
    0.6565   19.3678   42.7401 H   0  0  0  0  0  0  0  0  0  0  0  0
    0.8088   18.7862   45.4622 H   0  0  0  0  0  0  0  0  0  0  0  0
   -0.1619   13.2814   42.9270 H   0  0  0  0  0  0  0  0  0  0  0  0
   -1.2555   13.7788   44.1967 H   0  0  0  0  0  0  0  0  0  0  0  0
   -1.0928   14.7500   42.7534 H   0  0  0  0  0  0  0  0  0  0  0  0
  1  2  1  0
  2  3  1  0
  3  4  1  0
  4  5  1  0
  5  6  1  0
  1  7  1  0
  2  8  1  0
  3  9  1  0
  4 10  1  0
  1 11  1  0
  5 11  1  0
  7 12  1  0
  1 13  1  6
  2 14  1  6
  3 15  1  1
  4 16  1  1
  5 17  1  1
  6 18  1  0
  6 19  1  0
  6 20  1  0
  8 21  1  0
  9 22  1  0
 10 23  1  0
 12 24  1  0
 12 25  1  0
 12 26  1  0
M  END
