
     RDKit          3D

 17 18  0  0  0  0  0  0  0  0999 V2000
   66.5564   22.3791  190.4525 C   0  0  0  0  0  0  0  0  0  0  0  0
   68.1151   25.8458  186.9657 C   0  0  0  0  0  0  0  0  0  0  0  0
   67.4163   24.6684  186.7121 C   0  0  0  0  0  0  0  0  0  0  0  0
   67.3168   23.6867  187.7019 C   0  0  0  0  0  0  0  0  0  0  0  0
   67.5146   19.7695  193.0936 C   0  0  1  0  0  0  0  0  0  0  0  0
   67.0562   20.3539  194.4177 C   0  0  0  0  0  0  0  0  0  0  0  0
   66.6748   18.5635  192.6638 C   0  0  0  0  0  0  0  0  0  0  0  0
   66.4539   21.3960  191.4427 C   0  0  0  0  0  0  0  0  0  0  0  0
   67.6031   20.8322  192.0130 C   0  0  0  0  0  0  0  0  0  0  0  0
   68.8547   21.2840  191.5750 C   0  0  0  0  0  0  0  0  0  0  0  0
   68.9529   22.2665  190.5836 C   0  0  0  0  0  0  0  0  0  0  0  0
   67.8066   22.8305  190.0041 C   0  0  0  0  0  0  0  0  0  0  0  0
   67.9123   23.8647  188.9619 C   0  0  0  0  0  0  0  0  0  0  0  0
   68.6118   25.0604  189.1967 C   0  0  0  0  0  0  0  0  0  0  0  0
   68.7134   26.0426  188.2076 C   0  0  0  0  0  0  0  0  0  0  0  0
   67.7810   19.9606  195.4843 O   0  0  0  0  0  0  0  0  0  0  0  0
   66.0935   21.0894  194.5782 O   0  0  0  0  0  0  0  0  0  0  0  0
  2  3  4  0
  3  4  4  0
  5  6  1  0
  5  7  1  6
  1  8  4  0
  5  9  1  0
  8  9  4  0
  9 10  4  0
 10 11  4  0
  1 12  4  0
 11 12  4  0
  4 13  4  0
 12 13  1  0
 13 14  4  0
  2 15  4  0
 14 15  4  0
  6 16  1  0
  6 17  2  0
M  END
