7LZQ_YJV_A_201
     RDKit          3D

 22 24  0  0  0  0  0  0  0  0999 V2000
   -9.9325   -6.9319  -12.4200 C   0  0  0  0  0  0  0  0  0  0  0  0
  -12.2663   -5.5867  -12.1672 C   0  0  0  0  0  0  0  0  0  0  0  0
  -16.6362   -0.6780  -13.1965 C   0  0  0  0  0  0  0  0  0  0  0  0
  -15.3156   -1.0344  -13.4656 C   0  0  0  0  0  0  0  0  0  0  0  0
  -15.0381   -0.8108  -16.9613 C   0  0  0  0  0  0  0  0  0  0  0  0
  -10.0864   -5.7006  -13.0160 C   0  0  0  0  0  0  0  0  0  0  0  0
  -14.8600   -1.0522  -14.7652 C   0  0  0  0  0  0  0  0  0  0  0  0
  -13.6638   -1.3518  -15.2954 N   0  0  0  0  0  0  0  0  0  0  0  0
  -12.4330   -1.7599  -14.6479 C   0  0  0  0  0  0  0  0  0  0  0  0
  -12.4930   -3.1987  -14.2098 C   0  0  0  0  0  0  0  0  0  0  0  0
  -13.5153   -3.8772  -14.4387 O   0  0  0  0  0  0  0  0  0  0  0  0
  -18.8731    0.0304  -13.9381 C   0  0  0  0  0  0  0  0  0  0  0  0
  -12.0579   -6.8262  -11.5894 C   0  0  0  0  0  0  0  0  0  0  0  0
  -13.7526   -1.2095  -16.6446 C   0  0  0  0  0  0  0  0  0  0  0  0
  -17.0449   -0.3611  -15.4757 C   0  0  0  0  0  0  0  0  0  0  0  0
  -11.2816   -4.9790  -12.9043 C   0  0  0  0  0  0  0  0  0  0  0  0
  -15.7350   -0.7120  -15.7753 C   0  0  0  0  0  0  0  0  0  0  0  0
  -10.9196   -7.4985  -11.7039 N   0  0  0  0  0  0  0  0  0  0  0  0
  -11.3687   -3.7333  -13.5438 N   0  0  0  0  0  0  0  0  0  0  0  0
  -17.4938   -0.3446  -14.1885 N   0  0  0  0  0  0  0  0  0  0  0  0
  -17.8440   -0.0482  -16.4226 O   0  0  0  0  0  0  0  0  0  0  0  0
   -8.7266   -5.0334  -13.9394 Cl  0  0  0  0  0  0  0  0  0  0  0  0
  3  4  2  0
  1  6  2  0
  4  7  1  0
  7  8  1  0
  9  8  1  1
  9 10  1  0
 10 11  2  0
  2 13  1  0
  8 14  1  0
  5 14  2  0
  6 16  1  0
  2 16  2  0
  5 17  1  0
  7 17  2  0
 15 17  1  0
  1 18  1  0
 13 18  2  0
 16 19  1  0
 10 19  1  0
 15 20  1  0
  3 20  1  0
 12 20  1  1
 15 21  2  0
  6 22  1  0
M  END
$$$$
