7ZU2_DHT_A_1001
     RDKit          3D

 51 54  0  0  0  0  0  0  0  0999 V2000
  -27.0600    5.0718   -4.3110 C   0  0  0  0  0  0  0  0  0  0  0  0
  -26.0725    6.2197   -4.0359 C   0  0  0  0  0  0  0  0  0  0  0  0
  -24.8577    6.1097   -4.9146 C   0  0  0  0  0  0  0  0  0  0  0  0
  -24.4706    7.0305   -5.6056 O   0  0  0  0  0  0  0  0  0  0  0  0
  -24.2025    4.7637   -4.9872 C   0  0  0  0  0  0  0  0  0  0  0  0
  -25.2448    3.6602   -5.2681 C   0  0  1  0  0  0  0  0  0  0  0  0
  -24.6203    2.2631   -5.4094 C   0  0  0  0  0  0  0  0  0  0  0  0
  -25.6695    1.2160   -5.7935 C   0  0  0  0  0  0  0  0  0  0  0  0
  -26.8184    1.1725   -4.7823 C   0  0  1  0  0  0  0  0  0  0  0  0
  -27.4414    2.5843   -4.5884 C   0  0  2  0  0  0  0  0  0  0  0  0
  -26.3946    3.6784   -4.2342 C   0  0  2  0  0  0  0  0  0  0  0  0
  -28.6321    2.5612   -3.6106 C   0  0  0  0  0  0  0  0  0  0  0  0
  -29.7040    1.5317   -4.0374 C   0  0  0  0  0  0  0  0  0  0  0  0
  -29.0876    0.1526   -4.2184 C   0  0  2  0  0  0  0  0  0  0  0  0
  -27.9428    0.2537   -5.2400 C   0  0  2  0  0  0  0  0  0  0  0  0
  -27.6173   -1.2150   -5.5637 C   0  0  0  0  0  0  0  0  0  0  0  0
  -28.9988   -1.9146   -5.5134 C   0  0  0  0  0  0  0  0  0  0  0  0
  -29.9739   -0.8714   -4.9494 C   0  0  1  0  0  0  0  0  0  0  0  0
  -30.9955   -1.4740   -4.1491 O   0  0  0  0  0  0  0  0  0  0  0  0
  -28.6198   -0.4059   -2.8608 C   0  0  0  0  0  0  0  0  0  0  0  0
  -25.8388    3.4764   -2.8090 C   0  0  0  0  0  0  0  0  0  0  0  0
  -27.8460    5.1159   -3.5863 H   0  0  0  0  0  0  0  0  0  0  0  0
  -27.4311    5.1974   -5.3068 H   0  0  0  0  0  0  0  0  0  0  0  0
  -26.5592    7.1531   -4.2275 H   0  0  0  0  0  0  0  0  0  0  0  0
  -25.7597    6.1618   -3.0143 H   0  0  0  0  0  0  0  0  0  0  0  0
  -23.4767    4.7689   -5.7734 H   0  0  0  0  0  0  0  0  0  0  0  0
  -23.7327    4.5602   -4.0476 H   0  0  0  0  0  0  0  0  0  0  0  0
  -25.6702    3.8899   -6.2226 H   0  0  0  0  0  0  0  0  0  0  0  0
  -23.8662    2.2943   -6.1679 H   0  0  0  0  0  0  0  0  0  0  0  0
  -24.1995    1.9862   -4.4654 H   0  0  0  0  0  0  0  0  0  0  0  0
  -26.0646    1.4580   -6.7580 H   0  0  0  0  0  0  0  0  0  0  0  0
  -25.1965    0.2563   -5.8043 H   0  0  0  0  0  0  0  0  0  0  0  0
  -26.3941    0.8095   -3.8695 H   0  0  0  0  0  0  0  0  0  0  0  0
  -27.8312    2.8681   -5.5437 H   0  0  0  0  0  0  0  0  0  0  0  0
  -28.2745    2.3051   -2.6352 H   0  0  0  0  0  0  0  0  0  0  0  0
  -29.0829    3.5315   -3.6118 H   0  0  0  0  0  0  0  0  0  0  0  0
  -30.4615    1.4811   -3.2834 H   0  0  0  0  0  0  0  0  0  0  0  0
  -30.1265    1.8433   -4.9698 H   0  0  0  0  0  0  0  0  0  0  0  0
  -28.1910    0.7569   -6.1511 H   0  0  0  0  0  0  0  0  0  0  0  0
  -27.1794   -1.3038   -6.5360 H   0  0  0  0  0  0  0  0  0  0  0  0
  -26.9097   -1.6431   -4.8848 H   0  0  0  0  0  0  0  0  0  0  0  0
  -29.3007   -2.2148   -6.4951 H   0  0  0  0  0  0  0  0  0  0  0  0
  -28.9722   -2.7971   -4.9090 H   0  0  0  0  0  0  0  0  0  0  0  0
  -30.5404   -0.3753   -5.7095 H   0  0  0  0  0  0  0  0  0  0  0  0
  -30.5871   -1.9597   -3.4154 H   0  0  0  0  0  0  0  0  0  0  0  0
  -28.0060    0.3197   -2.3691 H   0  0  0  0  0  0  0  0  0  0  0  0
  -29.4722   -0.6235   -2.2518 H   0  0  0  0  0  0  0  0  0  0  0  0
  -28.0562   -1.3016   -3.0188 H   0  0  0  0  0  0  0  0  0  0  0  0
  -25.1227    4.2418   -2.5937 H   0  0  0  0  0  0  0  0  0  0  0  0
  -26.6407    3.5293   -2.1027 H   0  0  0  0  0  0  0  0  0  0  0  0
  -25.3675    2.5181   -2.7425 H   0  0  0  0  0  0  0  0  0  0  0  0
  1  2  1  0
  2  3  1  0
  3  4  2  0
  3  5  1  0
  6  5  1  0
  6  7  1  0
  7  8  1  0
  9  8  1  0
  9 10  1  0
  1 11  1  0
  6 11  1  0
 10 11  1  0
 10 12  1  0
 12 13  1  0
 13 14  1  0
  9 15  1  0
 14 15  1  0
 15 16  1  0
 16 17  1  0
 14 18  1  0
 17 18  1  0
 18 19  1  0
 14 20  1  6
 11 21  1  6
  1 22  1  0
  1 23  1  0
  2 24  1  0
  2 25  1  0
  5 26  1  0
  5 27  1  0
  6 28  1  1
  7 29  1  0
  7 30  1  0
  8 31  1  0
  8 32  1  0
  9 33  1  6
 10 34  1  1
 12 35  1  0
 12 36  1  0
 13 37  1  0
 13 38  1  0
 15 39  1  1
 16 40  1  0
 16 41  1  0
 17 42  1  0
 17 43  1  0
 18 44  1  1
 19 45  1  0
 20 46  1  0
 20 47  1  0
 20 48  1  0
 21 49  1  0
 21 50  1  0
 21 51  1  0
M  END
