7ZU2_DHT_A_1001
     RDKit          3D

 21 24  0  0  0  0  0  0  0  0999 V2000
  -27.4350    5.0380   -4.8000 C   0  0  0  0  0  0  0  0  0  0  0  0
  -26.6390    6.2830   -5.2300 C   0  0  0  0  0  0  0  0  0  0  0  0
  -25.2140    6.2030   -4.7580 C   0  0  0  0  0  0  0  0  0  0  0  0
  -24.6910    7.0930   -4.1180 O   0  0  0  0  0  0  0  0  0  0  0  0
  -24.4930    4.9150   -5.0180 C   0  0  0  0  0  0  0  0  0  0  0  0
  -25.3420    3.7090   -4.5620 C   0  0  2  0  0  0  0  0  0  0  0  0
  -24.6270    2.3620   -4.7530 C   0  0  0  0  0  0  0  0  0  0  0  0
  -25.4550    1.2030   -4.1910 C   0  0  0  0  0  0  0  0  0  0  0  0
  -26.8480    1.1470   -4.8240 C   0  0  2  0  0  0  0  0  0  0  0  0
  -27.5780    2.5130   -4.6820 C   0  0  1  0  0  0  0  0  0  0  0  0
  -26.7460    3.7160   -5.2100 C   0  0  1  0  0  0  0  0  0  0  0  0
  -29.0020    2.4710   -5.2690 C   0  0  0  0  0  0  0  0  0  0  0  0
  -29.8400    1.3240   -4.6580 C   0  0  0  0  0  0  0  0  0  0  0  0
  -29.1220   -0.0090   -4.8070 C   0  0  1  0  0  0  0  0  0  0  0  0
  -27.7330    0.1030   -4.1570 C   0  0  1  0  0  0  0  0  0  0  0  0
  -27.2450   -1.3550   -4.0950 C   0  0  0  0  0  0  0  0  0  0  0  0
  -28.5380   -2.1610   -3.8140 C   0  0  0  0  0  0  0  0  0  0  0  0
  -29.6930   -1.1600   -3.9600 C   0  0  2  0  0  0  0  0  0  0  0  0
  -30.8710   -1.7780   -4.4870 O   0  0  0  0  0  0  0  0  0  0  0  0
  -29.0480   -0.4130   -6.2920 C   0  0  0  0  0  0  0  0  0  0  0  0
  -26.6280    3.6790   -6.7480 C   0  0  0  0  0  0  0  0  0  0  0  0
  1  2  1  0
  2  3  1  0
  3  4  2  0
  3  5  1  0
  6  5  1  6
  6  7  1  0
  7  8  1  0
  9  8  1  1
  9 10  1  0
  1 11  1  0
  6 11  1  0
 10 11  1  0
 10 12  1  6
 12 13  1  0
 13 14  1  0
  9 15  1  0
 14 15  1  0
 15 16  1  6
 16 17  1  0
 14 18  1  0
 17 18  1  0
 18 19  1  6
 14 20  1  6
 11 21  1  6
M  END
$$$$
