7BNH_BEZ_A_501
     RDKit          3D

 15 15  0  0  0  0  0  0  0  0999 V2000
    3.1106    0.4350   -0.7477 C   0  0  0  0  0  0  0  0  0  0  0  0
    4.2511    0.9624   -0.6431 O   0  0  0  0  0  0  0  0  0  0  0  0
    2.6993   -0.0599   -1.9827 O   0  0  0  0  0  0  0  0  0  0  0  0
    2.2173    0.3418    0.4279 C   0  0  0  0  0  0  0  0  0  0  0  0
    0.8424    0.6202    0.3095 C   0  0  0  0  0  0  0  0  0  0  0  0
    0.0039    0.5301    1.4251 C   0  0  0  0  0  0  0  0  0  0  0  0
    0.5265    0.1623    2.6670 C   0  0  0  0  0  0  0  0  0  0  0  0
    1.8891   -0.1163    2.7961 C   0  0  0  0  0  0  0  0  0  0  0  0
    2.7324   -0.0278    1.6840 C   0  0  0  0  0  0  0  0  0  0  0  0
    3.3031   -0.0011   -2.7940 H   0  0  0  0  0  0  0  0  0  0  0  0
    0.4152    0.9072   -0.6432 H   0  0  0  0  0  0  0  0  0  0  0  0
   -1.0522    0.7457    1.3262 H   0  0  0  0  0  0  0  0  0  0  0  0
   -0.1243    0.0931    3.5291 H   0  0  0  0  0  0  0  0  0  0  0  0
    2.2927   -0.4012    3.7592 H   0  0  0  0  0  0  0  0  0  0  0  0
    3.7850   -0.2483    1.8084 H   0  0  0  0  0  0  0  0  0  0  0  0
  1  2  2  0
  1  3  1  0
  1  4  1  0
  4  5  4  0
  5  6  4  0
  6  7  4  0
  7  8  4  0
  4  9  4  0
  8  9  4  0
  3 10  1  0
  5 11  1  0
  6 12  1  0
  7 13  1  0
  8 14  1  0
  9 15  1  0
M  END
