7V3N_AKG_A_1403
     RDKit          3D

 10  9  0  0  0  0  0  0  0  0999 V2000
  128.5452   79.0793   -3.2243 C   0  0  0  0  0  0  0  0  0  0  0  0
  129.4601   78.2153   -3.2744 O   0  0  0  0  0  0  0  0  0  0  0  0
  127.2495   78.6082   -3.0947 O   0  0  0  0  0  0  0  0  0  0  0  0
  128.8144   80.5118   -3.2973 C   0  0  0  0  0  0  0  0  0  0  0  0
  127.8861   81.3380   -3.2669 O   0  0  0  0  0  0  0  0  0  0  0  0
  130.2239   80.9638   -3.4092 C   0  0  0  0  0  0  0  0  0  0  0  0
  130.1944   82.4845   -3.4640 C   0  0  0  0  0  0  0  0  0  0  0  0
  131.6018   82.9839   -3.6471 C   0  0  0  0  0  0  0  0  0  0  0  0
  132.5707   82.1778   -3.6338 O   0  0  0  0  0  0  0  0  0  0  0  0
  131.8343   84.3603   -3.8339 O   0  0  0  0  0  0  0  0  0  0  0  0
  1  2  2  0
  1  3  1  0
  1  4  1  0
  4  5  2  0
  6  4  1  1
  6  7  1  0
  7  8  1  6
  8  9  2  0
  8 10  1  0
M  END
$$$$
