7MWU_ZPM_A_2002
     RDKit          3D

  7  7  0  0  0  0  0  0  0  0999 V2000
   10.7900   50.2000   50.7320 C   0  0  0  0  0  0  0  0  0  0  0  0
   10.3270   49.8160   49.3240 C   0  0  0  0  0  0  0  0  0  0  0  0
   11.4340   48.7640   49.2660 C   0  0  0  0  0  0  0  0  0  0  0  0
   12.0400   49.3300   50.5500 C   0  0  0  0  0  0  0  0  0  0  0  0
   12.3380   48.9520   48.0480 C   0  0  0  0  0  0  0  0  0  0  0  0
   13.5830   48.9390   48.2210 O   0  0  0  0  0  0  0  0  0  0  0  0
   11.8380   49.1220   46.9030 O   0  0  0  0  0  0  0  0  0  0  0  0
  1  2  1  0
  2  3  1  0
  3  4  1  0
  1  4  1  0
  3  5  1  0
  5  6  1  0
  5  7  2  0
M  END
$$$$
