8DSC_NCA_A_1001
     RDKit          3D

 15 15  0  0  0  0  0  0  0  0999 V2000
   13.7383   10.0915    7.2698 N   0  0  0  0  0  0  0  0  0  0  0  0
   13.9193   10.0351    5.9413 C   0  0  0  0  0  0  0  0  0  0  0  0
   14.9913    9.3494    5.3889 C   0  0  0  0  0  0  0  0  0  0  0  0
   15.8675    8.6882    6.2494 C   0  0  0  0  0  0  0  0  0  0  0  0
   15.6620    8.7758    7.6166 C   0  0  0  0  0  0  0  0  0  0  0  0
   14.5826    9.4679    8.1024 C   0  0  0  0  0  0  0  0  0  0  0  0
   15.1573    9.3319    3.8952 C   0  0  0  0  0  0  0  0  0  0  0  0
   14.3596   10.0110    3.2236 O   0  0  0  0  0  0  0  0  0  0  0  0
   16.1276    8.6223    3.3578 N   0  0  0  0  0  0  0  0  0  0  0  0
   13.2481   10.5111    5.3185 H   0  0  0  0  0  0  0  0  0  0  0  0
   16.6576    8.1414    5.8731 H   0  0  0  0  0  0  0  0  0  0  0  0
   16.3201    8.3209    8.2684 H   0  0  0  0  0  0  0  0  0  0  0  0
   14.4189    9.5090    9.1205 H   0  0  0  0  0  0  0  0  0  0  0  0
   16.7331    8.1011    3.9331 H   0  0  0  0  0  0  0  0  0  0  0  0
   16.2475    8.6129    2.3807 H   0  0  0  0  0  0  0  0  0  0  0  0
  1  2  4  0
  2  3  4  0
  3  4  4  0
  4  5  4  0
  1  6  4  0
  5  6  4  0
  3  7  1  0
  7  8  2  0
  7  9  1  0
  2 10  1  0
  4 11  1  0
  5 12  1  0
  6 13  1  0
  9 14  1  0
  9 15  1  0
M  END
