7ROR_69X_A_401
     RDKit          3D

 58 61  0  0  0  0  0  0  0  0999 V2000
   14.4610   -0.5616   53.5780 C   0  0  2  0  0  0  0  0  0  0  0  0
   15.1393   -1.8982   54.0079 C   0  0  0  0  0  0  0  0  0  0  0  0
   16.5525   -2.0043   53.6020 C   0  0  0  0  0  0  0  0  0  0  0  0
   17.0499   -1.3920   52.4111 C   0  0  0  0  0  0  0  0  0  0  0  0
   18.3894   -1.5298   52.0096 C   0  0  0  0  0  0  0  0  0  0  0  0
   19.3102   -2.2939   52.7793 C   0  0  0  0  0  0  0  0  0  0  0  0
   18.8343   -2.9096   54.0050 C   0  0  0  0  0  0  0  0  0  0  0  0
   17.5000   -2.7666   54.3508 C   0  0  0  0  0  0  0  0  0  0  0  0
   13.9534    0.1073   54.8516 C   0  0  0  0  0  0  0  0  0  0  0  0
   11.7278   -0.7650   54.5498 C   0  0  0  0  0  0  0  0  0  0  0  0
   11.4007   -2.1143   53.9217 C   0  0  1  0  0  0  0  0  0  0  0  0
    9.6013   -2.3587   52.4289 C   0  0  1  0  0  0  0  0  0  0  0  0
    9.0025   -2.3908   53.8492 C   0  0  2  0  0  0  0  0  0  0  0  0
   10.1901   -2.8668   54.6700 C   0  0  1  0  0  0  0  0  0  0  0  0
    7.6317   -0.7907   51.9299 C   0  0  0  0  0  0  0  0  0  0  0  0
    8.0141   -0.4196   49.7569 C   0  0  0  0  0  0  0  0  0  0  0  0
    8.0302   -0.0456   48.3719 C   0  0  0  0  0  0  0  0  0  0  0  0
   10.0161   -1.3929   48.1171 C   0  0  0  0  0  0  0  0  0  0  0  0
    9.0289   -1.2776   50.2182 C   0  0  0  0  0  0  0  0  0  0  0  0
   13.3484   -0.7576   52.6026 N   0  0  0  0  0  0  0  0  0  0  0  0
    8.8099   -1.5490   51.5879 N   0  0  0  0  0  4  0  0  0  0  0  0
    7.1487   -0.1273   50.8405 N   0  0  0  0  0  0  0  0  0  0  0  0
    7.1026    0.7772   47.7804 N   0  0  0  0  0  0  0  0  0  0  0  0
    9.0624   -0.5668   47.5708 N   0  0  0  0  0  0  0  0  0  0  0  0
   10.0876   -1.7958   49.4090 N   0  0  0  0  0  0  0  0  0  0  0  0
   20.6132   -2.4146   52.4144 O   0  0  0  0  0  0  0  0  0  0  0  0
   13.5712    1.2118   54.9651 O   0  0  0  0  0  0  0  0  0  0  0  0
   13.9128   -0.7239   55.8805 O   0  0  0  0  0  0  0  0  0  0  0  0
   12.5303   -2.0870   57.6259 O   0  0  0  0  0  0  0  0  0  0  0  0
   12.5670    0.5735   57.6596 O   0  0  0  0  0  0  0  0  0  0  0  0
   11.2947   -0.7546   55.8476 O   0  0  0  0  0  0  0  0  0  0  0  0
   10.8911   -1.8667   52.5803 O   0  0  0  0  0  0  0  0  0  0  0  0
    7.8394   -3.2762   53.9292 O   0  0  0  0  0  0  0  0  0  0  0  0
   10.4507   -4.2492   54.5820 O   0  0  0  0  0  0  0  0  0  0  0  0
   12.6141   -0.7546   57.0134 P   0  0  1  0  0  5  0  0  0  0  0  0
   15.1765    0.0502   53.0695 H   0  0  0  0  0  0  0  0  0  0  0  0
   15.0875   -1.9754   55.0739 H   0  0  0  0  0  0  0  0  0  0  0  0
   14.6127   -2.6882   53.5147 H   0  0  0  0  0  0  0  0  0  0  0  0
   16.4071   -0.8325   51.8291 H   0  0  0  0  0  0  0  0  0  0  0  0
   18.7100   -1.0699   51.1432 H   0  0  0  0  0  0  0  0  0  0  0  0
   19.4784   -3.4445   54.6082 H   0  0  0  0  0  0  0  0  0  0  0  0
   17.1696   -3.2420   55.2051 H   0  0  0  0  0  0  0  0  0  0  0  0
   12.7857   -0.6059   54.5245 H   0  0  0  0  0  0  0  0  0  0  0  0
   11.2394    0.0137   54.0022 H   0  0  0  0  0  0  0  0  0  0  0  0
   12.2918   -2.7050   53.9660 H   0  0  0  0  0  0  0  0  0  0  0  0
    9.6235   -3.3238   51.9674 H   0  0  0  0  0  0  0  0  0  0  0  0
    8.6112   -1.4550   54.1898 H   0  0  0  0  0  0  0  0  0  0  0  0
   10.0385   -2.6715   55.7111 H   0  0  0  0  0  0  0  0  0  0  0  0
    7.2109   -0.7549   52.8715 H   0  0  0  0  0  0  0  0  0  0  0  0
   10.7501   -1.7405   47.4804 H   0  0  0  0  0  0  0  0  0  0  0  0
   12.6238   -1.3377   53.0253 H   0  0  0  0  0  0  0  0  0  0  0  0
   12.9542    0.1486   52.3500 H   0  0  0  0  0  0  0  0  0  0  0  0
    6.3689    1.1569   48.3159 H   0  0  0  0  0  0  0  0  0  0  0  0
    7.1717    0.9873   46.8210 H   0  0  0  0  0  0  0  0  0  0  0  0
   20.9169   -2.0159   51.6227 H   0  0  0  0  0  0  0  0  0  0  0  0
   13.2291   -2.1812   58.2920 H   0  0  0  0  0  0  0  0  0  0  0  0
    8.0901   -4.1665   53.6371 H   0  0  0  0  0  0  0  0  0  0  0  0
   10.5984   -4.4920   53.6545 H   0  0  0  0  0  0  0  0  0  0  0  0
  1  2  1  0
  2  3  1  0
  3  4  4  0
  4  5  4  0
  5  6  4  0
  6  7  4  0
  7  8  4  0
  3  8  4  0
  1  9  1  0
 11 10  1  0
 12 13  1  0
 11 14  1  0
 13 14  1  0
 16 17  4  0
 16 19  4  0
  1 20  1  0
 12 21  1  0
 15 21  4  0
 19 21  4  0
 15 22  4  0
 16 22  4  0
 17 23  1  0
 18 24  4  0
 17 24  4  0
 19 25  4  0
 18 25  4  0
  6 26  1  0
  9 27  2  0
  9 28  1  0
 10 31  1  0
 11 32  1  0
 12 32  1  0
 13 33  1  0
 14 34  1  0
 35 28  1  1
 30 35  2  0
 35 29  1  0
 31 35  1  0
  1 36  1  1
  2 37  1  0
  2 38  1  0
  4 39  1  0
  5 40  1  0
  7 41  1  0
  8 42  1  0
 10 43  1  0
 10 44  1  0
 11 45  1  1
 12 46  1  1
 13 47  1  6
 14 48  1  6
 15 49  1  0
 18 50  1  0
 20 51  1  0
 20 52  1  0
 23 53  1  0
 23 54  1  0
 26 55  1  0
 29 56  1  0
 33 57  1  0
 34 58  1  0
M  CHG  1  21   1
M  END
