
     RDKit          3D

 10  9  0  0  0  0  0  0  0  0999 V2000
  -24.2531  -17.3439  -39.1914 N   0  0  0  0  0  0  0  0  0  0  0  0
  -23.3308  -18.4864  -39.4014 C   0  0  1  0  0  0  0  0  0  0  0  0
  -23.8960  -19.7263  -38.6966 C   0  0  0  0  0  0  0  0  0  0  0  0
  -24.9889  -19.8183  -38.1581 O   0  0  0  0  0  0  0  0  0  0  0  0
  -23.1769  -18.7130  -40.9082 C   0  0  0  0  0  0  0  0  0  0  0  0
  -22.3301  -17.6399  -41.5894 C   0  0  0  0  0  0  0  0  0  0  0  0
  -20.9860  -17.5164  -40.9317 C   0  0  0  0  0  0  0  0  0  0  0  0
  -19.9738  -18.1214  -41.2407 O   0  0  0  0  0  0  0  0  0  0  0  0
  -20.9748  -16.6191  -39.9287 O   0  0  0  0  0  0  0  0  0  0  0  0
  -23.0461  -20.7711  -38.6976 O   0  0  0  0  0  0  0  0  0  0  0  0
  2  1  1  6
  2  3  1  0
  3  4  2  0
  2  5  1  0
  5  6  1  0
  6  7  1  0
  7  8  2  0
  7  9  1  0
  3 10  1  0
M  END
