6ZPB_3D1_A_201
     RDKit          3D

 31 33  0  0  0  0  0  0  0  0999 V2000
   -3.6746   20.5471   -6.9658 O   0  0  0  0  0  0  0  0  0  0  0  0
   -3.7747   21.8870   -7.3675 C   0  0  2  0  0  0  0  0  0  0  0  0
   -4.5507   22.7112   -6.3313 C   0  0  1  0  0  0  0  0  0  0  0  0
   -5.8395   22.1702   -6.1650 O   0  0  0  0  0  0  0  0  0  0  0  0
   -6.2283   22.4169   -4.8298 C   0  0  1  0  0  0  0  0  0  0  0  0
   -6.7792   21.1943   -4.2409 N   0  0  0  0  0  0  0  0  0  0  0  0
   -6.3977   19.9243   -4.4325 C   0  0  0  0  0  0  0  0  0  0  0  0
   -5.4375   19.4630   -5.2698 N   0  0  0  0  0  0  0  0  0  0  0  0
   -5.2023   18.1167   -5.2958 C   0  0  0  0  0  0  0  0  0  0  0  0
   -5.9197   17.2693   -4.4896 N   0  0  0  0  0  0  0  0  0  0  0  0
   -6.8835   17.7388   -3.6417 C   0  0  0  0  0  0  0  0  0  0  0  0
   -7.6143   16.8425   -2.8046 N   0  0  0  0  0  0  0  0  0  0  0  0
   -7.1151   19.1096   -3.6261 C   0  0  0  0  0  0  0  0  0  0  0  0
   -7.9762   19.8244   -2.8773 N   0  0  0  0  0  0  0  0  0  0  0  0
   -7.7354   21.1029   -3.2808 C   0  0  0  0  0  0  0  0  0  0  0  0
   -5.0249   22.9086   -4.0271 C   0  0  2  0  0  0  0  0  0  0  0  0
   -3.8682   22.7222   -4.9709 C   0  0  2  0  0  0  0  0  0  0  0  0
   -2.9523   23.7817   -4.8788 O   0  0  0  0  0  0  0  0  0  0  0  0
   -2.7455   20.4168   -6.6410 H   0  0  0  0  0  0  0  0  0  0  0  0
   -4.2922   21.9289   -8.3495 H   0  0  0  0  0  0  0  0  0  0  0  0
   -2.7585   22.3210   -7.5075 H   0  0  0  0  0  0  0  0  0  0  0  0
   -4.6581   23.7538   -6.7105 H   0  0  0  0  0  0  0  0  0  0  0  0
   -7.0146   23.2048   -4.8354 H   0  0  0  0  0  0  0  0  0  0  0  0
   -4.4442   17.7173   -5.9551 H   0  0  0  0  0  0  0  0  0  0  0  0
   -7.3876   15.8233   -2.8036 H   0  0  0  0  0  0  0  0  0  0  0  0
   -8.3808   17.1888   -2.1858 H   0  0  0  0  0  0  0  0  0  0  0  0
   -8.2496   21.9598   -2.8653 H   0  0  0  0  0  0  0  0  0  0  0  0
   -4.8696   22.3349   -3.0865 H   0  0  0  0  0  0  0  0  0  0  0  0
   -5.1574   23.9849   -3.7756 H   0  0  0  0  0  0  0  0  0  0  0  0
   -3.3684   21.7449   -4.7696 H   0  0  0  0  0  0  0  0  0  0  0  0
   -2.7076   23.8578   -3.9198 H   0  0  0  0  0  0  0  0  0  0  0  0
  1  2  1  0
  3  2  1  0
  3  4  1  0
  4  5  1  0
  5  6  1  0
  6  7  1  0
  7  8  2  0
  8  9  1  0
  9 10  2  0
 10 11  1  0
 11 12  1  0
  7 13  1  0
 11 13  2  0
 13 14  1  0
  6 15  1  0
 14 15  2  0
  5 16  1  0
  3 17  1  0
 16 17  1  0
 17 18  1  0
  1 19  1  0
  2 20  1  6
  2 21  1  0
  3 22  1  6
  5 23  1  6
  9 24  1  0
 12 25  1  0
 12 26  1  0
 15 27  1  0
 16 28  1  1
 16 29  1  0
 17 30  1  1
 18 31  1  0
M  END
