1R9O_FLP_A_501
     RDKit          3D

 31 32  0  0  0  0  0  0  0  0999 V2000
   -2.7937    2.9159   -0.4969 C   0  0  0  0  0  0  0  0  0  0  0  0
   -2.6337    3.9848   -1.3842 C   0  0  0  0  0  0  0  0  0  0  0  0
   -3.7581    4.6553   -1.9000 C   0  0  0  0  0  0  0  0  0  0  0  0
   -5.0431    4.2281   -1.5175 C   0  0  0  0  0  0  0  0  0  0  0  0
   -5.1975    3.1592   -0.6293 C   0  0  0  0  0  0  0  0  0  0  0  0
   -4.0740    2.5044   -0.1187 C   0  0  0  0  0  0  0  0  0  0  0  0
   -3.5951    5.7847   -2.8477 C   0  0  0  0  0  0  0  0  0  0  0  0
   -4.0441    7.0679   -2.4938 C   0  0  0  0  0  0  0  0  0  0  0  0
   -3.9026    8.1395   -3.3786 C   0  0  0  0  0  0  0  0  0  0  0  0
   -3.3064    7.9519   -4.6383 C   0  0  0  0  0  0  0  0  0  0  0  0
   -2.8487    6.6707   -4.9886 C   0  0  0  0  0  0  0  0  0  0  0  0
   -2.9901    5.5962   -4.1050 C   0  0  0  0  0  0  0  0  0  0  0  0
   -3.1408    9.1077   -5.6048 C   0  0  2  0  0  0  0  0  0  0  0  0
   -4.4952    9.5623   -6.1611 C   0  0  0  0  0  0  0  0  0  0  0  0
   -2.1832    8.7437   -6.7076 C   0  0  0  0  0  0  0  0  0  0  0  0
   -1.6697    7.5934   -6.7346 O   0  0  0  0  0  0  0  0  0  0  0  0
   -1.8973    9.6501   -7.7258 O   0  0  0  0  0  0  0  0  0  0  0  0
   -2.5018    4.3822   -4.4659 F   0  0  0  0  0  0  0  0  0  0  0  0
   -1.9241    2.4035   -0.1059 H   0  0  0  0  0  0  0  0  0  0  0  0
   -1.6339    4.2761   -1.6810 H   0  0  0  0  0  0  0  0  0  0  0  0
   -5.9252    4.7301   -1.8951 H   0  0  0  0  0  0  0  0  0  0  0  0
   -6.1890    2.8395   -0.3355 H   0  0  0  0  0  0  0  0  0  0  0  0
   -4.1956    1.6766    0.5680 H   0  0  0  0  0  0  0  0  0  0  0  0
   -4.5194    7.2388   -1.5357 H   0  0  0  0  0  0  0  0  0  0  0  0
   -4.2619    9.1156   -3.0798 H   0  0  0  0  0  0  0  0  0  0  0  0
   -2.3741    6.5017   -5.9473 H   0  0  0  0  0  0  0  0  0  0  0  0
   -2.7108    9.9829   -5.0670 H   0  0  0  0  0  0  0  0  0  0  0  0
   -5.1636    9.8663   -5.3272 H   0  0  0  0  0  0  0  0  0  0  0  0
   -4.9903    8.7500   -6.7349 H   0  0  0  0  0  0  0  0  0  0  0  0
   -4.3562   10.4373   -6.8317 H   0  0  0  0  0  0  0  0  0  0  0  0
   -1.2680    9.4031   -8.4802 H   0  0  0  0  0  0  0  0  0  0  0  0
  1  2  4  0
  2  3  4  0
  3  4  4  0
  4  5  4  0
  1  6  4  0
  5  6  4  0
  3  7  1  0
  7  8  4  0
  8  9  4  0
  9 10  4  0
 10 11  4  0
  7 12  4  0
 11 12  4  0
 10 13  1  0
 13 14  1  0
 13 15  1  0
 15 16  2  0
 15 17  1  0
 12 18  1  0
  1 19  1  0
  2 20  1  0
  4 21  1  0
  5 22  1  0
  6 23  1  0
  8 24  1  0
  9 25  1  0
 11 26  1  0
 13 27  1  1
 14 28  1  0
 14 29  1  0
 14 30  1  0
 17 31  1  0
M  END
