7OFK_VCH_A_601
     RDKit          3D

 35 37  0  0  0  0  0  0  0  0999 V2000
  -24.8575    3.7332  -10.9819 C   0  0  0  0  0  0  0  0  0  0  0  0
  -25.9753    4.1733  -11.8798 C   0  0  0  0  0  0  0  0  0  0  0  0
  -26.8322    0.1741  -14.6765 C   0  0  0  0  0  0  0  0  0  0  0  0
  -27.7122   -0.0124  -15.7268 C   0  0  0  0  0  0  0  0  0  0  0  0
  -28.5650    0.9779  -16.1511 C   0  0  0  0  0  0  0  0  0  0  0  0
  -28.5489    2.2221  -15.5557 C   0  0  0  0  0  0  0  0  0  0  0  0
  -27.6686    2.4117  -14.5154 C   0  0  0  0  0  0  0  0  0  0  0  0
  -27.4734    3.6562  -13.7279 C   0  0  2  0  0  0  0  0  0  0  0  0
  -26.9557    4.7551  -14.6185 C   0  0  0  0  0  0  0  0  0  0  0  0
  -27.3760    7.2077  -14.7220 C   0  0  0  0  0  0  0  0  0  0  0  0
  -26.6205    9.8564  -15.0890 C   0  0  0  0  0  0  0  0  0  0  0  0
  -26.5358    9.2598  -13.8432 C   0  0  0  0  0  0  0  0  0  0  0  0
  -26.9005    7.9402  -13.6643 C   0  0  0  0  0  0  0  0  0  0  0  0
  -26.2231   11.3086  -15.2841 C   0  0  1  0  0  0  0  0  0  0  0  0
  -26.1723   12.0123  -13.9449 C   0  0  1  0  0  0  0  0  0  0  0  0
  -28.8223   -1.2859  -17.9463 C   0  0  0  0  0  0  0  0  0  0  0  0
  -26.5098    5.2635  -11.7346 O   0  0  0  0  0  0  0  0  0  0  0  0
  -26.3640    3.2850  -12.8709 N   0  0  0  0  0  0  0  0  0  0  0  0
  -25.9702    1.8841  -12.9664 C   0  0  0  0  0  0  0  0  0  0  0  0
  -26.8252    1.4167  -14.0905 C   0  0  0  0  0  0  0  0  0  0  0  0
  -25.9672    4.5874  -15.3103 O   0  0  0  0  0  0  0  0  0  0  0  0
  -27.7836    5.8599  -14.5757 N   0  0  0  0  0  0  0  0  0  0  0  0
  -27.4699    7.7849  -15.9629 C   0  0  0  0  0  0  0  0  0  0  0  0
  -27.0941    9.1021  -16.1414 C   0  0  0  0  0  0  0  0  0  0  0  0
  -24.9210   11.3913  -15.8681 O   0  0  0  0  0  0  0  0  0  0  0  0
  -24.9352   11.9090  -13.4251 F   0  0  0  0  0  0  0  0  0  0  0  0
  -26.5038   13.3383  -13.9887 F   0  0  0  0  0  0  0  0  0  0  0  0
  -27.0152   11.4274  -13.0705 F   0  0  0  0  0  0  0  0  0  0  0  0
  -27.1773   12.0369  -16.2182 C   0  0  2  0  0  0  0  0  0  0  0  0
  -26.8646   11.8367  -17.5353 F   0  0  0  0  0  0  0  0  0  0  0  0
  -27.1845   13.3617  -15.9789 F   0  0  0  0  0  0  0  0  0  0  0  0
  -28.4346   11.6009  -16.0383 F   0  0  0  0  0  0  0  0  0  0  0  0
  -27.8061   -1.6027  -16.5282 S   0  0  1  0  0  0  0  0  0  0  0  0
  -26.4834   -1.9423  -17.0246 O   0  0  0  0  0  0  0  0  0  0  0  0
  -28.5413   -2.4540  -15.6234 O   0  0  0  0  0  0  0  0  0  0  0  0
  1  2  1  0
  3  4  2  0
  4  5  1  0
  5  6  2  0
  6  7  1  0
  7  8  1  0
  8  9  1  6
 11 12  2  0
 12 13  1  0
 10 13  2  0
 11 14  1  0
 14 15  1  0
  2 17  2  0
  8 18  1  0
  2 18  1  0
 18 19  1  0
  3 20  1  0
  7 20  2  0
 19 20  1  0
  9 21  2  0
 10 22  1  0
  9 22  1  0
 10 23  1  0
 11 24  1  0
 23 24  2  0
 14 25  1  6
 15 26  1  1
 15 27  1  0
 15 28  1  0
 14 29  1  0
 29 30  1  6
 29 31  1  0
 29 32  1  0
 33 16  1  6
  4 33  1  0
 33 34  2  0
 33 35  2  0
M  END
