6Y7L_QMG_A_301
     RDKit          3D

 25 28  0  0  0  0  0  0  0  0999 V2000
  129.2640   -7.1180   31.2810 C   0  0  0  0  0  0  0  0  0  0  0  0
  125.7120   -5.5740   35.6730 C   0  0  0  0  0  0  0  0  0  0  0  0
  125.7500   -3.4150   36.7090 C   0  0  0  0  0  0  0  0  0  0  0  0
  131.1260   -1.9630   36.8040 C   0  0  0  0  0  0  0  0  0  0  0  0
  131.4480   -0.5620   36.8560 C   0  0  0  0  0  0  0  0  0  0  0  0
  127.6930    1.7630   36.0910 C   0  0  0  0  0  0  0  0  0  0  0  0
  127.8690    0.3700   36.1480 C   0  0  0  0  0  0  0  0  0  0  0  0
  126.9520   -0.6170   35.9540 C   0  0  0  0  0  0  0  0  0  0  0  0
  127.5600   -1.8330   36.1090 C   0  0  0  0  0  0  0  0  0  0  0  0
  126.9310   -3.0930   36.0180 C   0  0  0  0  0  0  0  0  0  0  0  0
  127.5050   -4.0450   35.1710 C   0  0  0  0  0  0  0  0  0  0  0  0
  126.9180   -5.3170   34.9810 C   0  0  0  0  0  0  0  0  0  0  0  0
  127.4630   -6.3380   34.1520 C   0  0  0  0  0  0  0  0  0  0  0  0
  129.2830   -7.2500   32.7410 C   0  0  0  0  0  0  0  0  0  0  0  0
  130.4560   -6.8750   32.0300 C   0  0  0  0  0  0  0  0  0  0  0  0
  125.1170   -4.6310   36.5320 C   0  0  0  0  0  0  0  0  0  0  0  0
  125.1680   -2.5050   37.6180 C   0  0  0  0  0  0  0  0  0  0  0  0
  128.8440   -1.6080   36.3350 C   0  0  0  0  0  0  0  0  0  0  0  0
  130.3560    0.2430   36.6140 C   0  0  0  0  0  0  0  0  0  0  0  0
  126.3140    2.2680   35.6610 C   0  0  0  0  0  0  0  0  0  0  0  0
  128.6900   -6.2050   33.6130 N   0  0  0  0  0  0  0  0  0  0  0  0
  129.8970   -2.4290   36.5710 N   0  0  0  0  0  0  0  0  0  0  0  0
  129.0610   -0.2760   36.4030 N   0  0  0  0  0  0  0  0  0  0  0  0
  128.5750    2.6020   36.4600 O   0  0  0  0  0  0  0  0  0  0  0  0
  126.7130   -7.2480   33.7930 O   0  0  0  0  0  0  0  0  0  0  0  0
  4  5  1  0
  6  7  1  0
  7  8  2  0
  8  9  1  0
  9 10  1  0
  3 10  1  0
 10 11  2  0
 11 12  1  0
  2 12  2  0
 12 13  1  0
  1 14  1  0
 14 15  1  0
  1 15  1  0
  3 16  2  0
  2 16  1  0
  3 17  1  0
  9 18  2  0
  5 19  2  0
  6 20  1  0
 14 21  1  0
 13 21  1  0
  4 22  2  0
 18 22  1  0
 19 23  1  0
 18 23  1  0
  7 23  1  0
  6 24  2  0
 13 25  2  0
M  END
$$$$
