6X8D_ARA_A_207
     RDKit          3D

 20 20  0  0  0  0  0  0  0  0999 V2000
   21.3549   -0.2963   69.9197 C   0  0  1  0  0  0  0  0  0  0  0  0
   22.7361    0.2729   70.1182 C   0  0  2  0  0  0  0  0  0  0  0  0
   23.6388   -0.6782   70.7977 C   0  0  1  0  0  0  0  0  0  0  0  0
   23.6665   -1.9834   70.0520 C   0  0  1  0  0  0  0  0  0  0  0  0
   22.2516   -2.5066   69.8071 C   0  0  0  0  0  0  0  0  0  0  0  0
   20.6041    0.5687   69.1926 O   0  0  0  0  0  0  0  0  0  0  0  0
   22.6291    1.5064   70.8174 O   0  0  0  0  0  0  0  0  0  0  0  0
   24.9865   -0.1041   70.9138 O   0  0  0  0  0  0  0  0  0  0  0  0
   24.4195   -1.8504   68.8460 O   0  0  0  0  0  0  0  0  0  0  0  0
   21.4480   -1.5232   69.1252 O   0  0  0  0  0  0  0  0  0  0  0  0
   20.9214   -0.4768   70.8812 H   0  0  0  0  0  0  0  0  0  0  0  0
   23.1802    0.4528   69.1614 H   0  0  0  0  0  0  0  0  0  0  0  0
   23.2734   -0.8658   71.7858 H   0  0  0  0  0  0  0  0  0  0  0  0
   24.1606   -2.7166   70.6548 H   0  0  0  0  0  0  0  0  0  0  0  0
   22.3046   -3.3914   69.2080 H   0  0  0  0  0  0  0  0  0  0  0  0
   21.7989   -2.7205   70.7527 H   0  0  0  0  0  0  0  0  0  0  0  0
   21.0214    0.7119   68.3288 H   0  0  0  0  0  0  0  0  0  0  0  0
   22.2272    1.3517   71.6864 H   0  0  0  0  0  0  0  0  0  0  0  0
   25.3390    0.0749   70.0280 H   0  0  0  0  0  0  0  0  0  0  0  0
   23.9983   -1.1906   68.2730 H   0  0  0  0  0  0  0  0  0  0  0  0
  1  2  1  0
  2  3  1  0
  3  4  1  0
  4  5  1  0
  1  6  1  0
  2  7  1  0
  3  8  1  0
  4  9  1  0
  1 10  1  0
  5 10  1  0
  1 11  1  6
  2 12  1  1
  3 13  1  6
  4 14  1  6
  5 15  1  0
  5 16  1  0
  6 17  1  0
  7 18  1  0
  8 19  1  0
  9 20  1  0
M  END
