7OSO_0V1_A_504
     RDKit          3D

 17 16  0  0  0  0  0  0  0  0999 V2000
   -1.2207    0.1707    1.0305 C   0  0  0  0  0  0  0  0  0  0  0  0
   -0.5510    1.0227   -0.0585 C   0  0  2  0  0  0  0  0  0  0  0  0
    0.2688    0.1890   -1.0691 C   0  0  0  0  0  0  0  0  0  0  0  0
    1.4709   -0.5311   -0.4418 C   0  0  0  0  0  0  0  0  0  0  0  0
    2.2193   -1.1747   -1.4370 O   0  0  0  0  0  0  0  0  0  0  0  0
    0.2639    1.9893    0.5531 O   0  0  0  0  0  0  0  0  0  0  0  0
   -2.0991   -0.7652    0.4639 O   0  0  0  0  0  0  0  0  0  0  0  0
   -0.4615   -0.3250    1.6775 H   0  0  0  0  0  0  0  0  0  0  0  0
   -1.8115    0.8419    1.6896 H   0  0  0  0  0  0  0  0  0  0  0  0
   -1.3661    1.5359   -0.6210 H   0  0  0  0  0  0  0  0  0  0  0  0
   -0.3889   -0.5569   -1.5653 H   0  0  0  0  0  0  0  0  0  0  0  0
    0.6389    0.8726   -1.8643 H   0  0  0  0  0  0  0  0  0  0  0  0
    2.1135    0.1879    0.1155 H   0  0  0  0  0  0  0  0  0  0  0  0
    1.1169   -1.3020    0.2729 H   0  0  0  0  0  0  0  0  0  0  0  0
    2.7525   -0.4714   -1.8919 H   0  0  0  0  0  0  0  0  0  0  0  0
    0.4440    2.6877   -0.1295 H   0  0  0  0  0  0  0  0  0  0  0  0
   -1.5831   -1.6031    0.3339 H   0  0  0  0  0  0  0  0  0  0  0  0
  1  2  1  0
  2  3  1  0
  3  4  1  0
  4  5  1  0
  2  6  1  0
  1  7  1  0
  1  8  1  0
  1  9  1  0
  2 10  1  6
  3 11  1  0
  3 12  1  0
  4 13  1  0
  4 14  1  0
  5 15  1  0
  6 16  1  0
  7 17  1  0
M  END
