7U0U_FK5_B_201
     RDKit          3D

 57 60  0  0  0  0  0  0  0  0999 V2000
  -20.8834  -11.5114  -14.2734 C   0  0  0  0  0  0  0  0  0  0  0  0
  -20.8802  -10.0493  -14.6128 C   0  0  2  0  0  0  0  0  0  0  0  0
  -20.1322   -9.8394  -15.9349 C   0  0  0  0  0  0  0  0  0  0  0  0
  -18.6233  -10.0723  -15.7881 C   0  0  0  0  0  0  0  0  0  0  0  0
  -18.0290   -9.2119  -14.6672 C   0  0  0  0  0  0  0  0  0  0  0  0
  -18.7626   -9.4627  -13.3423 C   0  0  0  0  0  0  0  0  0  0  0  0
  -20.9331   -8.4438  -12.8065 C   0  0  0  0  0  0  0  0  0  0  0  0
  -20.3984   -7.6493  -11.8021 C   0  0  0  0  0  0  0  0  0  0  0  0
  -20.3469   -8.1197  -10.3538 C   0  0  1  0  0  0  0  0  0  0  0  0
  -21.5342   -9.0230  -10.0027 C   0  0  1  0  0  0  0  0  0  0  0  0
  -21.2488   -9.8076   -8.7174 C   0  0  0  0  0  0  0  0  0  0  0  0
  -19.8501  -10.4385   -8.7612 C   0  0  1  0  0  0  0  0  0  0  0  0
  -18.8099   -9.3468   -9.0010 C   0  0  1  0  0  0  0  0  0  0  0  0
  -17.3540   -9.8358   -9.0884 C   0  0  2  0  0  0  0  0  0  0  0  0
  -17.1968  -11.0740   -9.9665 C   0  0  0  0  0  0  0  0  0  0  0  0
  -15.7444  -11.4758  -10.2665 C   0  0  2  0  0  0  0  0  0  0  0  0
  -15.1826  -12.3246   -9.1168 C   0  0  0  0  0  0  0  0  0  0  0  0
  -15.6596  -13.7476   -9.2390 C   0  0  0  0  0  0  0  0  0  0  0  0
  -16.7987  -14.1881   -8.4275 C   0  0  0  0  0  0  0  0  0  0  0  0
  -17.3431  -15.5865   -8.5352 C   0  0  2  0  0  0  0  0  0  0  0  0
  -18.4556  -15.5629   -9.5367 C   0  0  0  0  0  0  0  0  0  0  0  0
  -18.2099  -15.8085  -11.0160 C   0  0  0  0  0  0  0  0  0  0  0  0
  -19.3852  -15.3692  -11.8929 C   0  0  1  0  0  0  0  0  0  0  0  0
  -19.3729  -13.8660  -12.2220 C   0  0  2  0  0  0  0  0  0  0  0  0
  -20.6019  -13.3770  -12.9946 C   0  0  1  0  0  0  0  0  0  0  0  0
  -21.8486  -13.6727  -12.1950 C   0  0  0  0  0  0  0  0  0  0  0  0
  -23.1397  -13.5795  -12.8603 C   0  0  0  0  0  0  0  0  0  0  0  0
  -24.4359  -13.9303  -12.1900 C   0  0  1  0  0  0  0  0  0  0  0  0
  -24.1984  -15.1957  -11.3668 C   0  0  0  0  0  0  0  0  0  0  0  0
  -25.4623  -15.5902  -10.6121 C   0  0  2  0  0  0  0  0  0  0  0  0
  -25.9024  -14.4555   -9.6844 C   0  0  1  0  0  0  0  0  0  0  0  0
  -26.1164  -13.1602  -10.4653 C   0  0  0  0  0  0  0  0  0  0  0  0
  -24.8662  -12.7686  -11.2754 C   0  0  0  0  0  0  0  0  0  0  0  0
  -22.8539   -8.2480   -9.8820 C   0  0  0  0  0  0  0  0  0  0  0  0
  -14.8556  -10.2479  -10.5132 C   0  0  0  0  0  0  0  0  0  0  0  0
  -14.9498  -14.6921  -10.1687 C   0  0  0  0  0  0  0  0  0  0  0  0
  -17.9175  -15.9666   -7.1730 C   0  0  0  0  0  0  0  0  0  0  0  0
  -17.1067  -15.2934   -6.0824 C   0  0  0  0  0  0  0  0  0  0  0  0
  -15.9178  -14.5345   -6.4606 C   0  0  0  0  0  0  0  0  0  0  0  0
  -18.1201  -13.4642  -13.0064 C   0  0  0  0  0  0  0  0  0  0  0  0
  -21.7230  -14.0711  -10.7426 C   0  0  0  0  0  0  0  0  0  0  0  0
  -20.2724  -12.3679   -7.5124 C   0  0  0  0  0  0  0  0  0  0  0  0
  -16.0045   -8.9964   -7.3666 C   0  0  0  0  0  0  0  0  0  0  0  0
  -24.9664  -17.9097  -10.5885 C   0  0  0  0  0  0  0  0  0  0  0  0
  -20.2080   -9.2976  -13.5454 N   0  0  0  0  0  0  0  0  0  0  0  0
  -20.4625  -11.9677  -13.1600 O   0  0  0  0  0  0  0  0  0  0  0  0
  -21.3951  -12.3504  -15.2344 O   0  0  0  0  0  0  0  0  0  0  0  0
  -22.2880   -8.3417  -13.0431 O   0  0  0  0  0  0  0  0  0  0  0  0
  -19.8779   -6.3965  -12.1080 O   0  0  0  0  0  0  0  0  0  0  0  0
  -19.1085   -8.7852  -10.2605 O   0  0  0  0  0  0  0  0  0  0  0  0
  -20.3445   -6.9716   -9.4820 O   0  0  0  0  0  0  0  0  0  0  0  0
  -19.5964  -11.1227   -7.5420 O   0  0  0  0  0  0  0  0  0  0  0  0
  -16.8129  -10.0703   -7.8097 O   0  0  0  0  0  0  0  0  0  0  0  0
  -19.7276  -15.2756   -9.0580 O   0  0  0  0  0  0  0  0  0  0  0  0
  -19.3078  -16.1108  -13.0898 O   0  0  0  0  0  0  0  0  0  0  0  0
  -25.2115  -16.7339   -9.8304 O   0  0  0  0  0  0  0  0  0  0  0  0
  -27.1086  -14.8374   -9.0438 O   0  0  0  0  0  0  0  0  0  0  0  0
  1  2  1  0
  2  3  1  6
  3  4  1  0
  4  5  1  0
  5  6  1  0
  7  8  1  0
  8  9  1  0
  9 10  1  0
 10 11  1  0
 11 12  1  0
 12 13  1  0
 13 14  1  0
 14 15  1  0
 15 16  1  0
 16 17  1  0
 17 18  1  0
 18 19  2  0
 19 20  1  0
 20 21  1  0
 21 22  1  0
 22 23  1  0
 23 24  1  0
 24 25  1  0
 25 26  1  1
 26 27  2  0
 28 27  1  1
 28 29  1  0
 29 30  1  0
 30 31  1  0
 31 32  1  0
 28 33  1  0
 32 33  1  0
 10 34  1  1
 16 35  1  1
 18 36  1  0
 20 37  1  1
 37 38  1  0
 38 39  2  0
 24 40  1  6
 26 41  1  0
  2 45  1  0
  6 45  1  0
  7 45  1  0
  1 46  1  0
 25 46  1  0
  1 47  2  0
  7 48  2  0
  8 49  2  0
  9 50  1  0
 13 50  1  6
  9 51  1  1
 12 52  1  1
 42 52  1  0
 14 53  1  1
 43 53  1  0
 21 54  2  0
 23 55  1  6
 30 56  1  1
 44 56  1  0
 31 57  1  6
M  END
