7DKT_GLF_A_1001
     RDKit          3D

 23 23  0  0  0  0  0  0  0  0999 V2000
   56.2004   66.8749   58.9135 C   0  0  2  0  0  0  0  0  0  0  0  0
   57.6708   66.9655   58.5225 C   0  0  2  0  0  0  0  0  0  0  0  0
   58.5451   67.0932   59.7778 C   0  0  1  0  0  0  0  0  0  0  0  0
   58.2988   65.8859   60.6696 C   0  0  2  0  0  0  0  0  0  0  0  0
   56.8045   65.7151   60.9636 C   0  0  2  0  0  0  0  0  0  0  0  0
   56.5270   64.4148   61.7007 C   0  0  0  0  0  0  0  0  0  0  0  0
   55.8324   68.0326   59.5359 F   0  0  0  0  0  0  0  0  0  0  0  0
   57.8679   68.0640   57.6271 O   0  0  0  0  0  0  0  0  0  0  0  0
   59.9365   67.1253   59.4517 O   0  0  0  0  0  0  0  0  0  0  0  0
   59.0331   66.0151   61.8926 O   0  0  0  0  0  0  0  0  0  0  0  0
   55.9969   65.7660   59.7715 O   0  0  0  0  0  0  0  0  0  0  0  0
   55.1249   64.1047   61.6496 O   0  0  0  0  0  0  0  0  0  0  0  0
   55.6007   66.7389   58.0379 H   0  0  0  0  0  0  0  0  0  0  0  0
   57.9623   66.0696   58.0150 H   0  0  0  0  0  0  0  0  0  0  0  0
   58.2861   68.0076   60.2694 H   0  0  0  0  0  0  0  0  0  0  0  0
   58.6382   65.0137   60.1510 H   0  0  0  0  0  0  0  0  0  0  0  0
   56.5339   66.5417   61.5869 H   0  0  0  0  0  0  0  0  0  0  0  0
   57.0810   63.6231   61.2413 H   0  0  0  0  0  0  0  0  0  0  0  0
   56.8235   64.5229   62.7230 H   0  0  0  0  0  0  0  0  0  0  0  0
   57.6097   68.8895   58.0663 H   0  0  0  0  0  0  0  0  0  0  0  0
   60.1831   66.3004   59.0049 H   0  0  0  0  0  0  0  0  0  0  0  0
   58.7310   66.8042   62.3692 H   0  0  0  0  0  0  0  0  0  0  0  0
   54.8492   64.0053   60.7250 H   0  0  0  0  0  0  0  0  0  0  0  0
  1  2  1  0
  2  3  1  0
  3  4  1  0
  4  5  1  0
  5  6  1  0
  1  7  1  0
  2  8  1  0
  3  9  1  0
  4 10  1  0
  1 11  1  0
  5 11  1  0
  6 12  1  0
  1 13  1  1
  2 14  1  1
  3 15  1  6
  4 16  1  1
  5 17  1  6
  6 18  1  0
  6 19  1  0
  8 20  1  0
  9 21  1  0
 10 22  1  0
 12 23  1  0
M  END
