7DKT_GLF_A_1001
     RDKit          3D

 23 23  0  0  0  0  0  0  0  0999 V2000
    0.9687    0.3154   -1.3195 C   0  0  1  0  0  0  0  0  0  0  0  0
    0.9303   -1.1877   -0.9569 C   0  0  1  0  0  0  0  0  0  0  0  0
   -0.1778   -1.4867    0.0775 C   0  0  2  0  0  0  0  0  0  0  0  0
   -0.4632   -0.2390    0.9309 C   0  0  1  0  0  0  0  0  0  0  0  0
   -0.8849    0.9344   -0.0016 C   0  0  1  0  0  0  0  0  0  0  0  0
   -0.5892    2.3011    0.6385 C   0  0  0  0  0  0  0  0  0  0  0  0
    1.5258    0.4917   -2.5741 F   0  0  0  0  0  0  0  0  0  0  0  0
    0.7012   -1.9646   -2.1058 O   0  0  0  0  0  0  0  0  0  0  0  0
    0.2266   -2.5567    0.8937 O   0  0  0  0  0  0  0  0  0  0  0  0
   -1.4954   -0.4993    1.8488 O   0  0  0  0  0  0  0  0  0  0  0  0
   -0.3340    0.8666   -1.3158 O   0  0  0  0  0  0  0  0  0  0  0  0
   -1.0324    3.3394   -0.1931 O   0  0  0  0  0  0  0  0  0  0  0  0
    1.6233    0.8577   -0.6003 H   0  0  0  0  0  0  0  0  0  0  0  0
    1.9192   -1.4545   -0.5116 H   0  0  0  0  0  0  0  0  0  0  0  0
   -1.1150   -1.7574   -0.4682 H   0  0  0  0  0  0  0  0  0  0  0  0
    0.4714    0.0373    1.4775 H   0  0  0  0  0  0  0  0  0  0  0  0
   -1.9886    0.8691   -0.1282 H   0  0  0  0  0  0  0  0  0  0  0  0
    0.5030    2.4196    0.7973 H   0  0  0  0  0  0  0  0  0  0  0  0
   -1.0824    2.3716    1.6351 H   0  0  0  0  0  0  0  0  0  0  0  0
    1.5794   -2.0909   -2.5518 H   0  0  0  0  0  0  0  0  0  0  0  0
   -0.5986   -2.9891    1.2370 H   0  0  0  0  0  0  0  0  0  0  0  0
   -1.0784   -0.9274    2.6416 H   0  0  0  0  0  0  0  0  0  0  0  0
   -2.0199    3.3778   -0.0981 H   0  0  0  0  0  0  0  0  0  0  0  0
  1  2  1  0
  2  3  1  0
  3  4  1  0
  4  5  1  0
  5  6  1  0
  1  7  1  0
  2  8  1  0
  3  9  1  0
  4 10  1  0
  1 11  1  0
  5 11  1  0
  6 12  1  0
  1 13  1  1
  2 14  1  1
  3 15  1  6
  4 16  1  1
  5 17  1  6
  6 18  1  0
  6 19  1  0
  8 20  1  0
  9 21  1  0
 10 22  1  0
 12 23  1  0
M  END
