1KZK_JE2_A_701
     RDKit          3D

 78 81  0  0  0  0  0  0  0  0999 V2000
   -1.6659   -6.1133   -0.0852 C   0  0  0  0  0  0  0  0  0  0  0  0
   -1.7116   -5.2947   -1.2106 C   0  0  0  0  0  0  0  0  0  0  0  0
   -0.6100   -4.5147   -1.5518 C   0  0  0  0  0  0  0  0  0  0  0  0
    0.5505   -4.5297   -0.7614 C   0  0  0  0  0  0  0  0  0  0  0  0
    0.5865   -5.3241    0.4179 C   0  0  0  0  0  0  0  0  0  0  0  0
   -0.5267   -6.1474    0.7244 C   0  0  0  0  0  0  0  0  0  0  0  0
    1.7713   -5.2895    1.3563 C   0  0  0  0  0  0  0  0  0  0  0  0
    1.6877   -3.6845   -1.1834 C   0  0  0  0  0  0  0  0  0  0  0  0
   -0.5350   -7.0113    1.8227 O   0  0  0  0  0  0  0  0  0  0  0  0
    2.8417   -4.1851   -1.2734 O   0  0  0  0  0  0  0  0  0  0  0  0
    1.7395    0.2765    0.1224 C   0  0  0  0  0  0  0  0  0  0  0  0
    1.4689   -2.2988   -1.4903 N   0  0  0  0  0  0  0  0  0  0  0  0
    1.8056    1.5248   -0.0356 O   0  0  0  0  0  0  0  0  0  0  0  0
    2.8852   -0.5642   -0.4027 C   0  0  2  0  0  0  0  0  0  0  0  0
    0.8744    0.0708   -3.1011 C   0  0  0  0  0  0  0  0  0  0  0  0
    2.2930   -0.4331   -2.9430 C   0  0  0  0  0  0  0  0  0  0  0  0
   -1.7576    0.9986   -3.4271 C   0  0  0  0  0  0  0  0  0  0  0  0
    2.5549   -1.3392   -1.7069 C   0  0  2  0  0  0  0  0  0  0  0  0
    3.3202   -1.4522    0.5927 O   0  0  0  0  0  0  0  0  0  0  0  0
   -0.1226   -0.7754   -3.6183 C   0  0  0  0  0  0  0  0  0  0  0  0
    0.5463    1.4035   -2.7998 C   0  0  0  0  0  0  0  0  0  0  0  0
   -1.4342   -0.3156   -3.7676 C   0  0  0  0  0  0  0  0  0  0  0  0
   -0.7665    1.8606   -2.9550 C   0  0  0  0  0  0  0  0  0  0  0  0
   -0.6149    1.6668    1.5914 C   0  0  0  0  0  0  0  0  0  0  0  0
    0.5894   -0.2864    0.7974 N   0  0  0  0  0  0  0  0  0  0  0  0
   -0.0537    1.6515    2.7218 O   0  0  0  0  0  0  0  0  0  0  0  0
   -0.7058    0.3931    0.7800 C   0  0  1  0  0  0  0  0  0  0  0  0
   -1.7609   -0.6042    1.3330 C   0  0  0  0  0  0  0  0  0  0  0  0
    0.6882   -1.4199    1.7118 C   0  0  0  0  0  0  0  0  0  0  0  0
   -2.9788    0.0806    1.9870 C   0  0  0  0  0  0  0  0  0  0  0  0
   -2.2678   -1.5285    0.2105 C   0  0  0  0  0  0  0  0  0  0  0  0
   -0.9020   -1.6293    2.5711 S   0  0  0  0  0  0  0  0  0  0  0  0
   -1.2004    2.8779    1.0927 N   0  0  0  0  0  0  0  0  0  0  0  0
   -1.1468    4.1370    1.8313 C   0  0  0  0  0  0  0  0  0  0  0  0
    0.2624    4.6870    1.8557 C   0  0  0  0  0  0  0  0  0  0  0  0
    0.8756    5.2344    0.6981 C   0  0  0  0  0  0  0  0  0  0  0  0
    2.1935    5.7191    0.7793 C   0  0  0  0  0  0  0  0  0  0  0  0
    2.8944    5.6713    1.9857 C   0  0  0  0  0  0  0  0  0  0  0  0
    2.2938    5.1311    3.1229 C   0  0  0  0  0  0  0  0  0  0  0  0
    0.9886    4.6410    3.0597 C   0  0  0  0  0  0  0  0  0  0  0  0
    0.1559    5.2910   -0.6237 C   0  0  0  0  0  0  0  0  0  0  0  0
   -2.5226   -6.7281    0.1607 H   0  0  0  0  0  0  0  0  0  0  0  0
   -2.6002   -5.2740   -1.8280 H   0  0  0  0  0  0  0  0  0  0  0  0
   -0.6585   -3.9024   -2.4448 H   0  0  0  0  0  0  0  0  0  0  0  0
    2.4217   -4.4077    1.1957 H   0  0  0  0  0  0  0  0  0  0  0  0
    1.4248   -5.2125    2.4076 H   0  0  0  0  0  0  0  0  0  0  0  0
    2.3758   -6.2110    1.2293 H   0  0  0  0  0  0  0  0  0  0  0  0
    0.2623   -7.1509    2.4307 H   0  0  0  0  0  0  0  0  0  0  0  0
    0.5111   -1.9212   -1.3397 H   0  0  0  0  0  0  0  0  0  0  0  0
    3.7273    0.1317   -0.6331 H   0  0  0  0  0  0  0  0  0  0  0  0
    3.0028    0.4221   -2.9328 H   0  0  0  0  0  0  0  0  0  0  0  0
    2.5462   -1.0142   -3.8576 H   0  0  0  0  0  0  0  0  0  0  0  0
   -2.7728    1.3542   -3.5472 H   0  0  0  0  0  0  0  0  0  0  0  0
    3.4798   -1.9011   -1.9633 H   0  0  0  0  0  0  0  0  0  0  0  0
    4.2359   -1.7482    0.3443 H   0  0  0  0  0  0  0  0  0  0  0  0
    0.1142   -1.7941   -3.8981 H   0  0  0  0  0  0  0  0  0  0  0  0
    1.3066    2.0940   -2.4591 H   0  0  0  0  0  0  0  0  0  0  0  0
   -2.1981   -0.9791   -4.1511 H   0  0  0  0  0  0  0  0  0  0  0  0
   -1.0154    2.8846   -2.7143 H   0  0  0  0  0  0  0  0  0  0  0  0
   -0.9592    0.6576   -0.2707 H   0  0  0  0  0  0  0  0  0  0  0  0
    1.4774   -1.2306    2.4694 H   0  0  0  0  0  0  0  0  0  0  0  0
    0.9128   -2.3470    1.1541 H   0  0  0  0  0  0  0  0  0  0  0  0
   -3.4568    0.7842    1.2717 H   0  0  0  0  0  0  0  0  0  0  0  0
   -3.7316   -0.6761    2.2983 H   0  0  0  0  0  0  0  0  0  0  0  0
   -2.6820    0.6425    2.8979 H   0  0  0  0  0  0  0  0  0  0  0  0
   -1.4323   -2.0915   -0.2467 H   0  0  0  0  0  0  0  0  0  0  0  0
   -2.9908   -2.2713    0.6122 H   0  0  0  0  0  0  0  0  0  0  0  0
   -2.7719   -0.9382   -0.5853 H   0  0  0  0  0  0  0  0  0  0  0  0
   -1.7288    2.8526    0.1907 H   0  0  0  0  0  0  0  0  0  0  0  0
   -1.8273    4.8761    1.3584 H   0  0  0  0  0  0  0  0  0  0  0  0
   -1.5356    3.9756    2.8607 H   0  0  0  0  0  0  0  0  0  0  0  0
    2.6814    6.1386   -0.0928 H   0  0  0  0  0  0  0  0  0  0  0  0
    3.9063    6.0520    2.0398 H   0  0  0  0  0  0  0  0  0  0  0  0
    2.8411    5.0933    4.0560 H   0  0  0  0  0  0  0  0  0  0  0  0
    0.5432    4.2224    3.9546 H   0  0  0  0  0  0  0  0  0  0  0  0
   -0.8009    5.8447   -0.5192 H   0  0  0  0  0  0  0  0  0  0  0  0
    0.7624    5.8056   -1.3982 H   0  0  0  0  0  0  0  0  0  0  0  0
   -0.0455    4.2613   -0.9790 H   0  0  0  0  0  0  0  0  0  0  0  0
  1  2  2  0
  2  3  1  0
  3  4  2  0
  4  5  1  0
  1  6  1  0
  5  6  2  0
  5  7  1  0
  4  8  1  0
  6  9  1  0
  8 10  2  0
  8 12  1  0
 11 13  2  0
 11 14  1  0
 15 16  1  0
 12 18  1  0
 18 16  1  0
 14 18  1  0
 14 19  1  0
 15 20  2  0
 15 21  1  0
 20 22  1  0
 17 22  2  0
 17 23  1  0
 21 23  2  0
 11 25  1  0
 24 26  2  0
 25 27  1  0
 27 24  1  0
 27 28  1  0
 25 29  1  0
 28 30  1  0
 28 31  1  0
 29 32  1  0
 28 32  1  0
 24 33  1  0
 33 34  1  0
 34 35  1  0
 35 36  2  0
 36 37  1  0
 37 38  2  0
 38 39  1  0
 35 40  1  0
 39 40  2  0
 36 41  1  0
  1 42  1  0
  2 43  1  0
  3 44  1  0
  7 45  1  0
  7 46  1  0
  7 47  1  0
  9 48  1  0
 12 49  1  0
 14 50  1  6
 16 51  1  0
 16 52  1  0
 17 53  1  0
 18 54  1  6
 19 55  1  0
 20 56  1  0
 21 57  1  0
 22 58  1  0
 23 59  1  0
 27 60  1  6
 29 61  1  0
 29 62  1  0
 30 63  1  0
 30 64  1  0
 30 65  1  0
 31 66  1  0
 31 67  1  0
 31 68  1  0
 33 69  1  0
 34 70  1  0
 34 71  1  0
 37 72  1  0
 38 73  1  0
 39 74  1  0
 40 75  1  0
 41 76  1  0
 41 77  1  0
 41 78  1  0
M  END
