7T3F_EM0_A_201
     RDKit          3D

 40 42  0  0  0  0  0  0  0  0999 V2000
   42.3219   42.6396   73.7426 F   0  0  0  0  0  0  0  0  0  0  0  0
   42.8775   41.4492   73.4019 C   0  0  0  0  0  0  0  0  0  0  0  0
   43.6508   40.7304   74.3294 C   0  0  0  0  0  0  0  0  0  0  0  0
   43.8991   41.2875   75.7012 C   0  0  2  0  0  0  0  0  0  0  0  0
   44.2377   39.5147   73.9423 C   0  0  0  0  0  0  0  0  0  0  0  0
   44.0410   39.0117   72.6489 C   0  0  0  0  0  0  0  0  0  0  0  0
   43.2517   39.7266   71.7391 C   0  0  0  0  0  0  0  0  0  0  0  0
   42.6750   40.9422   72.1149 C   0  0  0  0  0  0  0  0  0  0  0  0
   44.8068   37.4998   72.1686 S   0  0  1  0  0  6  0  0  0  0  0  0
   44.0178   36.3563   72.7406 O   0  0  0  0  0  0  0  0  0  0  0  0
   44.8389   37.3734   70.6709 O   0  0  0  0  0  0  0  0  0  0  0  0
   46.4318   37.4356   72.7761 N   0  0  0  0  0  0  0  0  0  0  0  0
   46.8614   38.0905   73.9833 C   0  0  0  0  0  0  0  0  0  0  0  0
   46.2276   39.2511   74.4647 C   0  0  0  0  0  0  0  0  0  0  0  0
   46.6533   39.8616   75.6553 C   0  0  0  0  0  0  0  0  0  0  0  0
   45.8891   41.0560   76.1796 C   0  0  1  0  0  0  0  0  0  0  0  0
   46.5932   41.7869   77.2441 N   0  0  0  0  0  0  0  0  0  0  0  0
   46.1055   43.1103   77.6386 C   0  0  1  0  0  0  0  0  0  0  0  0
   47.6385   41.1622   78.0079 C   0  0  0  0  0  0  0  0  0  0  0  0
   48.1020   41.7229   79.0377 O   0  0  0  0  0  0  0  0  0  0  0  0
   48.1714   39.9075   77.5906 N   0  0  0  0  0  0  0  0  0  0  0  0
   47.7229   39.3005   76.3765 C   0  0  0  0  0  0  0  0  0  0  0  0
   48.3622   38.1520   75.8930 C   0  0  0  0  0  0  0  0  0  0  0  0
   47.9374   37.5553   74.7048 C   0  0  0  0  0  0  0  0  0  0  0  0
   43.1635   40.8732   76.4227 H   0  0  0  0  0  0  0  0  0  0  0  0
   43.8003   42.3928   75.6743 H   0  0  0  0  0  0  0  0  0  0  0  0
   44.9167   41.0274   76.0629 H   0  0  0  0  0  0  0  0  0  0  0  0
   44.8524   38.9632   74.6432 H   0  0  0  0  0  0  0  0  0  0  0  0
   43.0892   39.3497   70.7376 H   0  0  0  0  0  0  0  0  0  0  0  0
   42.0743   41.4952   71.4043 H   0  0  0  0  0  0  0  0  0  0  0  0
   47.0966   36.8009   72.2797 H   0  0  0  0  0  0  0  0  0  0  0  0
   45.4010   39.6898   73.9241 H   0  0  0  0  0  0  0  0  0  0  0  0
   45.6928   41.7494   75.3323 H   0  0  0  0  0  0  0  0  0  0  0  0
   44.9105   40.7054   76.5717 H   0  0  0  0  0  0  0  0  0  0  0  0
   45.7755   43.0905   78.6989 H   0  0  0  0  0  0  0  0  0  0  0  0
   46.9177   43.8581   77.5200 H   0  0  0  0  0  0  0  0  0  0  0  0
   45.2435   43.4245   77.0119 H   0  0  0  0  0  0  0  0  0  0  0  0
   48.9348   39.4639   78.1503 H   0  0  0  0  0  0  0  0  0  0  0  0
   49.1913   37.7184   76.4381 H   0  0  0  0  0  0  0  0  0  0  0  0
   48.4418   36.6647   74.3511 H   0  0  0  0  0  0  0  0  0  0  0  0
  1  2  1  0
  2  3  2  0
  3  4  1  0
  3  5  1  0
  5  6  2  0
  6  7  1  0
  2  8  1  0
  7  8  2  0
  6  9  1  0
  9 10  2  0
  9 11  2  0
  9 12  1  1
 12 13  1  0
 13 14  2  0
 14 15  1  0
 15 16  1  0
 16 17  1  0
 17 18  1  0
 17 19  1  0
 19 20  2  0
 19 21  1  0
 21 22  1  0
 15 22  2  0
 22 23  1  0
 23 24  2  0
 13 24  1  0
  4 25  1  1
  4 26  1  0
  4 27  1  0
  5 28  1  0
  7 29  1  0
  8 30  1  0
 12 31  1  0
 14 32  1  0
 16 33  1  6
 16 34  1  0
 18 35  1  1
 18 36  1  0
 18 37  1  0
 21 38  1  0
 23 39  1  0
 24 40  1  0
M  END
