6Z4N_Q7B_BBB_402
     RDKit          3D

 38 40  0  0  0  0  0  0  0  0999 V2000
   24.5033   13.3038   64.4462 C   0  0  0  0  0  0  0  0  0  0  0  0
   25.1469   12.3057   65.1589 C   0  0  0  0  0  0  0  0  0  0  0  0
   24.5302   11.1046   65.3860 C   0  0  0  0  0  0  0  0  0  0  0  0
   25.2094   10.0895   66.0871 C   0  0  0  0  0  0  0  0  0  0  0  0
   23.2796   10.8849   64.8498 C   0  0  0  0  0  0  0  0  0  0  0  0
   22.5975   11.8991   64.1589 C   0  0  0  0  0  0  0  0  0  0  0  0
   23.2094   13.1339   63.9262 C   0  0  0  0  0  0  0  0  0  0  0  0
   22.5774   14.2167   63.1667 C   0  0  0  0  0  0  0  0  0  0  0  0
   23.5644   15.2490   62.6157 C   0  0  1  0  0  0  0  0  0  0  0  0
   23.7837   15.1518   61.1073 C   0  0  0  0  0  0  0  0  0  0  0  0
   24.3462   16.1049   60.5288 O   0  0  0  0  0  0  0  0  0  0  0  0
   23.2967   14.1455   60.5163 O   0  0  0  0  0  0  0  0  0  0  0  0
   23.4258   16.6006   63.1853 C   0  0  0  0  0  0  0  0  0  0  0  0
   24.6909   15.7960   63.4779 C   0  0  1  0  0  0  0  0  0  0  0  0
   25.0033   15.2189   64.7778 C   0  0  0  0  0  0  0  0  0  0  0  0
   24.5721   15.8838   65.9384 C   0  0  0  0  0  0  0  0  0  0  0  0
   24.8273   15.4175   67.1830 C   0  0  0  0  0  0  0  0  0  0  0  0
   25.4899   14.2375   67.3591 C   0  0  0  0  0  0  0  0  0  0  0  0
   25.9158   13.5691   66.2285 C   0  0  0  0  0  0  0  0  0  0  0  0
   25.6725   14.0140   64.9718 C   0  0  0  0  0  0  0  0  0  0  0  0
   24.9898   14.2008   64.2923 H   0  0  0  0  0  0  0  0  0  0  0  0
   26.0992   12.4686   65.5218 H   0  0  0  0  0  0  0  0  0  0  0  0
   26.1569   10.4586   66.4202 H   0  0  0  0  0  0  0  0  0  0  0  0
   25.3607    9.2498   65.4413 H   0  0  0  0  0  0  0  0  0  0  0  0
   24.6267    9.7887   66.9326 H   0  0  0  0  0  0  0  0  0  0  0  0
   22.8370    9.9589   64.9580 H   0  0  0  0  0  0  0  0  0  0  0  0
   21.6371   11.7315   63.8203 H   0  0  0  0  0  0  0  0  0  0  0  0
   21.8873   14.7210   63.8105 H   0  0  0  0  0  0  0  0  0  0  0  0
   22.0987   13.7648   62.3232 H   0  0  0  0  0  0  0  0  0  0  0  0
   24.6859   16.8213   61.0281 H   0  0  0  0  0  0  0  0  0  0  0  0
   22.7159   16.7795   63.9656 H   0  0  0  0  0  0  0  0  0  0  0  0
   23.2290   17.5708   62.7794 H   0  0  0  0  0  0  0  0  0  0  0  0
   25.7409   15.9738   63.3739 H   0  0  0  0  0  0  0  0  0  0  0  0
   24.0398   16.7622   65.8377 H   0  0  0  0  0  0  0  0  0  0  0  0
   24.5184   15.9587   68.0055 H   0  0  0  0  0  0  0  0  0  0  0  0
   25.6663   13.8586   68.3028 H   0  0  0  0  0  0  0  0  0  0  0  0
   26.4438   12.6901   66.3459 H   0  0  0  0  0  0  0  0  0  0  0  0
   25.9833   13.4595   64.1588 H   0  0  0  0  0  0  0  0  0  0  0  0
  1  2  4  0
  2  3  4  0
  3  4  1  0
  3  5  4  0
  5  6  4  0
  6  7  4  0
  1  7  4  0
  7  8  1  0
  9  8  1  0
  9 10  1  6
 10 11  1  0
 10 12  2  0
  9 13  1  0
 13 14  1  0
  9 14  1  0
 14 15  1  0
 15 16  4  0
 16 17  4  0
 17 18  4  0
 18 19  4  0
 19 20  4  0
 15 20  4  0
  1 21  1  0
  2 22  1  0
  4 23  1  0
  4 24  1  0
  4 25  1  0
  5 26  1  0
  6 27  1  0
  8 28  1  0
  8 29  1  0
 11 30  1  0
 13 31  1  0
 13 32  1  0
 14 33  1  6
 16 34  1  0
 17 35  1  0
 18 36  1  0
 19 37  1  0
 20 38  1  0
M  END
