7PJQ_OWH_B_603
     RDKit          3D

 18 18  0  0  0  0  0  0  0  0999 V2000
   -1.0298   -1.0621   -2.2280 C   0  0  0  0  0  0  0  0  0  0  0  0
   -0.9869   -0.7456    0.2940 C   0  0  0  0  0  0  0  0  0  0  0  0
    0.1651    0.1803    0.2702 C   0  0  0  0  0  0  0  0  0  0  0  0
    1.4130   -0.2424   -0.2125 C   0  0  0  0  0  0  0  0  0  0  0  0
    2.3598    1.8900    0.2331 C   0  0  0  0  0  0  0  0  0  0  0  0
    1.1410    2.3511    0.7331 C   0  0  0  0  0  0  0  0  0  0  0  0
    0.0415    1.4911    0.7555 C   0  0  0  0  0  0  0  0  0  0  0  0
   -1.3975   -1.4705   -0.8762 N   0  0  0  0  0  0  0  0  0  0  0  0
    2.4699    0.6135   -0.2211 N   0  0  0  0  0  0  0  0  0  0  0  0
   -1.8077   -0.9673    1.6960 S   0  0  0  0  0  0  0  0  0  0  0  0
   -1.6392   -1.6222   -2.9683 H   0  0  0  0  0  0  0  0  0  0  0  0
   -1.2184    0.0241   -2.3616 H   0  0  0  0  0  0  0  0  0  0  0  0
    0.0393   -1.2840   -2.4187 H   0  0  0  0  0  0  0  0  0  0  0  0
    1.5521   -1.2566   -0.5636 H   0  0  0  0  0  0  0  0  0  0  0  0
    3.2202    2.5453    0.2104 H   0  0  0  0  0  0  0  0  0  0  0  0
    1.0492    3.3654    1.0995 H   0  0  0  0  0  0  0  0  0  0  0  0
   -0.9057    1.8500    1.1387 H   0  0  0  0  0  0  0  0  0  0  0  0
   -2.1127   -2.2258   -0.7734 H   0  0  0  0  0  0  0  0  0  0  0  0
  2  3  1  0
  3  4  2  0
  5  6  1  0
  6  7  2  0
  3  7  1  0
  1  8  1  0
  2  8  1  0
  5  9  2  0
  4  9  1  0
  2 10  2  0
  1 11  1  0
  1 12  1  0
  1 13  1  0
  4 14  1  0
  5 15  1  0
  6 16  1  0
  7 17  1  0
  8 18  1  0
M  END
