6YSP_PAL_C_401
     RDKit          3D

 16 15  0  0  0  0  0  0  0  0999 V2000
    9.5705   31.6010  -37.9726 P   0  0  1  0  0  0  0  0  0  0  0  0
    8.4276   32.1108  -38.8244 O   0  0  0  0  0  0  0  0  0  0  0  0
    9.9011   30.1496  -38.2142 O   0  0  0  0  0  0  0  0  0  0  0  0
   10.7936   32.4865  -38.0787 O   0  0  0  0  0  0  0  0  0  0  0  0
    9.0352   31.7516  -36.2223 C   0  0  0  0  0  0  0  0  0  0  0  0
    9.8815   30.8315  -35.3843 C   0  0  0  0  0  0  0  0  0  0  0  0
   10.9434   31.1592  -34.9549 O   0  0  0  0  0  0  0  0  0  0  0  0
    9.2992   29.5661  -35.1957 N   0  0  0  0  0  0  0  0  0  0  0  0
   10.1187   28.3767  -35.0250 C   0  0  2  0  0  0  0  0  0  0  0  0
   11.3533   28.3096  -35.9040 C   0  0  0  0  0  0  0  0  0  0  0  0
   11.6340   29.1664  -36.7844 O   0  0  0  0  0  0  0  0  0  0  0  0
   12.1198   27.3461  -35.6470 O   0  0  0  0  0  0  0  0  0  0  0  0
    9.1773   27.1897  -35.2465 C   0  0  0  0  0  0  0  0  0  0  0  0
    8.4337   27.1906  -36.5709 C   0  0  0  0  0  0  0  0  0  0  0  0
    8.7109   28.0497  -37.4425 O   0  0  0  0  0  0  0  0  0  0  0  0
    7.5748   26.2906  -36.7709 O   0  0  0  0  0  0  0  0  0  0  0  0
  1  2  2  0
  1  3  1  6
  1  4  1  0
  1  5  1  0
  5  6  1  0
  6  7  2  0
  6  8  1  0
  8  9  1  0
  9 10  1  0
 10 11  2  0
 10 12  1  0
  9 13  1  6
 13 14  1  0
 14 15  2  0
 14 16  1  0
M  END
