1GKC_NFH_A_1448
     RDKit          3D

 51 50  0  0  0  0  0  0  0  0999 V2000
   65.5808   30.3138  117.4826 C   0  0  0  0  0  0  0  0  0  0  0  0
   64.4691   28.6534  114.3266 N   0  0  0  0  0  0  0  0  0  0  0  0
   66.7686   30.2032  117.0919 O   0  0  0  0  0  0  0  0  0  0  0  0
   63.9687   32.5270  120.0951 C   0  0  0  0  0  0  0  0  0  0  0  0
   65.2340   30.9877  118.6002 N   0  0  0  0  0  0  0  0  0  0  0  0
   64.6667   32.1834  121.0735 O   0  0  0  0  0  0  0  0  0  0  0  0
   62.7511   33.1284  120.1976 N   0  0  0  0  0  0  0  0  0  0  0  0
   64.4359   29.6562  116.6580 C   0  0  2  0  0  0  0  0  0  0  0  0
   63.4552   28.8001  117.5596 C   0  0  0  0  0  0  0  0  0  0  0  0
   62.2626   29.4819  118.2751 C   0  0  1  0  0  0  0  0  0  0  0  0
   65.0755   28.4353  113.1583 C   0  0  0  0  0  0  0  0  0  0  0  0
   64.9018   27.4767  112.4849 O   0  0  0  0  0  0  0  0  0  0  0  0
   65.1633   28.7358  115.6088 C   0  0  0  0  0  0  0  0  0  0  0  0
   63.1935   28.7881  114.3456 O   0  0  0  0  0  0  0  0  0  0  0  0
   64.4669   32.2912  118.5982 C   0  0  1  0  0  0  0  0  0  0  0  0
   63.2943   32.3049  117.4885 C   0  0  1  0  0  0  0  0  0  0  0  0
   61.8156   30.7401  117.4969 C   0  0  0  0  0  0  0  0  0  0  0  0
   61.0637   28.5514  118.2397 C   0  0  0  0  0  0  0  0  0  0  0  0
   63.5778   33.3391  116.3327 C   0  0  0  0  0  0  0  0  0  0  0  0
   63.1171   30.9009  116.8512 C   0  0  0  0  0  0  0  0  0  0  0  0
   61.8773   32.6895  118.0676 C   0  0  0  0  0  0  0  0  0  0  0  0
   62.4573   34.2789  121.0839 C   0  0  0  0  0  0  0  0  0  0  0  0
   65.4964   30.6072  119.4694 H   0  0  0  0  0  0  0  0  0  0  0  0
   62.0164   32.7751  119.6455 H   0  0  0  0  0  0  0  0  0  0  0  0
   63.8221   30.4027  116.1987 H   0  0  0  0  0  0  0  0  0  0  0  0
   64.0537   28.3469  118.3219 H   0  0  0  0  0  0  0  0  0  0  0  0
   62.9789   28.1510  116.8548 H   0  0  0  0  0  0  0  0  0  0  0  0
   62.5736   29.7225  119.2703 H   0  0  0  0  0  0  0  0  0  0  0  0
   65.7395   29.1489  112.8192 H   0  0  0  0  0  0  0  0  0  0  0  0
   65.2380   27.7498  116.0178 H   0  0  0  0  0  0  0  0  0  0  0  0
   66.1226   29.1704  115.4200 H   0  0  0  0  0  0  0  0  0  0  0  0
   62.8470   28.7152  113.4425 H   0  0  0  0  0  0  0  0  0  0  0  0
   65.0858   33.1131  118.3042 H   0  0  0  0  0  0  0  0  0  0  0  0
   61.5128   30.4601  116.5096 H   0  0  0  0  0  0  0  0  0  0  0  0
   62.6307   31.4310  117.4375 H   0  0  0  0  0  0  0  0  0  0  0  0
   60.9940   31.2002  118.0048 H   0  0  0  0  0  0  0  0  0  0  0  0
   60.8002   28.3478  117.2229 H   0  0  0  0  0  0  0  0  0  0  0  0
   60.2371   29.0153  118.7362 H   0  0  0  0  0  0  0  0  0  0  0  0
   61.3084   27.6352  118.7351 H   0  0  0  0  0  0  0  0  0  0  0  0
   64.5318   33.1319  115.8945 H   0  0  0  0  0  0  0  0  0  0  0  0
   63.5773   34.3312  116.7337 H   0  0  0  0  0  0  0  0  0  0  0  0
   62.8166   33.2564  115.5854 H   0  0  0  0  0  0  0  0  0  0  0  0
   64.0487   30.5774  116.4359 H   0  0  0  0  0  0  0  0  0  0  0  0
   62.3800   30.9511  116.0774 H   0  0  0  0  0  0  0  0  0  0  0  0
   62.8004   30.2063  117.6010 H   0  0  0  0  0  0  0  0  0  0  0  0
   61.9290   33.6553  118.5253 H   0  0  0  0  0  0  0  0  0  0  0  0
   61.5813   31.9647  118.7969 H   0  0  0  0  0  0  0  0  0  0  0  0
   61.1608   32.7093  117.2733 H   0  0  0  0  0  0  0  0  0  0  0  0
   63.3429   34.5523  121.6187 H   0  0  0  0  0  0  0  0  0  0  0  0
   61.6905   34.0069  121.7789 H   0  0  0  0  0  0  0  0  0  0  0  0
   62.1263   35.1081  120.4941 H   0  0  0  0  0  0  0  0  0  0  0  0
  1  3  2  0
  1  5  1  0
  4  6  2  0
  4  7  1  0
  1  8  1  0
  8  9  1  0
  9 10  1  0
  2 11  1  0
 11 12  2  0
  8 13  1  0
  2 13  1  0
  2 14  1  0
  4 15  1  0
 15  5  1  0
 15 16  1  0
 10 17  1  0
 10 18  1  0
 16 19  1  6
 16 20  1  0
 16 21  1  0
  7 22  1  0
  5 23  1  0
  7 24  1  0
  8 25  1  6
  9 26  1  0
  9 27  1  0
 10 28  1  1
 11 29  1  0
 13 30  1  0
 13 31  1  0
 14 32  1  0
 15 33  1  6
 17 34  1  0
 17 35  1  0
 17 36  1  0
 18 37  1  0
 18 38  1  0
 18 39  1  0
 19 40  1  0
 19 41  1  0
 19 42  1  0
 20 43  1  0
 20 44  1  0
 20 45  1  0
 21 46  1  0
 21 47  1  0
 21 48  1  0
 22 49  1  0
 22 50  1  0
 22 51  1  0
M  END
