1GKC_NFH_A_1448
     RDKit          3D

 22 21  0  0  0  0  0  0  0  0999 V2000
   66.2740   30.1870  117.6290 C   0  0  0  0  0  0  0  0  0  0  0  0
   65.3230   29.1400  114.0740 N   0  0  0  0  0  0  0  0  0  0  0  0
   66.8820   29.1800  118.0670 O   0  0  0  0  0  0  0  0  0  0  0  0
   66.4910   31.8470  120.5860 C   0  0  0  0  0  0  0  0  0  0  0  0
   66.4500   31.4280  118.1310 N   0  0  0  0  0  0  0  0  0  0  0  0
   65.4060   32.4680  120.5890 O   0  0  0  0  0  0  0  0  0  0  0  0
   67.0030   31.1960  121.6670 N   0  0  0  0  0  0  0  0  0  0  0  0
   65.2680   30.0260  116.4520 C   0  0  2  0  0  0  0  0  0  0  0  0
   64.0190   29.1340  116.8410 C   0  0  0  0  0  0  0  0  0  0  0  0
   63.0380   29.6080  117.9420 C   0  0  0  0  0  0  0  0  0  0  0  0
   64.8510   27.9580  113.6730 C   0  0  0  0  0  0  0  0  0  0  0  0
   64.2130   27.7930  112.6890 O   0  0  0  0  0  0  0  0  0  0  0  0
   66.0930   29.3440  115.2980 C   0  0  0  0  0  0  0  0  0  0  0  0
   65.0830   30.1770  113.3580 O   0  0  0  0  0  0  0  0  0  0  0  0
   67.3890   31.7540  119.2710 C   0  0  1  0  0  0  0  0  0  0  0  0
   68.2790   33.0670  118.9690 C   0  0  0  0  0  0  0  0  0  0  0  0
   62.2950   30.8850  117.4880 C   0  0  0  0  0  0  0  0  0  0  0  0
   61.9510   28.5640  118.1220 C   0  0  0  0  0  0  0  0  0  0  0  0
   69.2630   33.4070  120.1530 C   0  0  0  0  0  0  0  0  0  0  0  0
   69.1190   32.8830  117.6770 C   0  0  0  0  0  0  0  0  0  0  0  0
   67.4240   34.3730  118.7360 C   0  0  0  0  0  0  0  0  0  0  0  0
   66.3500   31.1370  122.9960 C   0  0  0  0  0  0  0  0  0  0  0  0
  1  3  2  0
  1  5  1  0
  4  6  2  0
  4  7  1  0
  1  8  1  0
  8  9  1  1
  9 10  1  0
  2 11  1  0
 11 12  2  0
  8 13  1  0
  2 13  1  0
  2 14  1  0
  4 15  1  0
 15  5  1  6
 15 16  1  0
 10 17  1  0
 10 18  1  0
 16 19  1  0
 16 20  1  0
 16 21  1  0
  7 22  1  0
M  END
$$$$
