1IA1_TQ3_B_196
     RDKit          3D

 31 33  0  0  0  0  0  0  0  0999 V2000
   17.8559   17.8916    8.2627 C   0  0  0  0  0  0  0  0  0  0  0  0
   18.2722   18.0452    9.6121 C   0  0  0  0  0  0  0  0  0  0  0  0
   17.7267   17.1326   10.5566 C   0  0  0  0  0  0  0  0  0  0  0  0
   16.9529   16.1030   10.1220 N   0  0  0  0  0  0  0  0  0  0  0  0
   16.6363   15.9446    8.8141 C   0  0  0  0  0  0  0  0  0  0  0  0
   17.0641   16.8499    7.9026 N   0  0  0  0  0  0  0  0  0  0  0  0
   17.8528   17.3134   11.9684 N   0  0  0  0  0  0  0  0  0  0  0  0
   18.2677   18.7987    7.2827 C   0  0  0  0  0  0  0  0  0  0  0  0
   19.1168   19.8503    7.6132 C   0  0  0  0  0  0  0  0  0  0  0  0
   19.6012   19.9740    8.9131 C   0  0  0  0  0  0  0  0  0  0  0  0
   19.2231   19.0652    9.9122 C   0  0  0  0  0  0  0  0  0  0  0  0
   15.8204   14.8497    8.4045 N   0  0  0  0  0  0  0  0  0  0  0  0
   20.1244   19.1780   11.4695 S   0  0  0  0  0  0  0  0  0  0  0  0
   21.3762   18.0055   10.9441 C   0  0  0  0  0  0  0  0  0  0  0  0
   22.5772   18.4647   10.3875 C   0  0  0  0  0  0  0  0  0  0  0  0
   23.5504   17.5511    9.9703 C   0  0  0  0  0  0  0  0  0  0  0  0
   23.3280   16.1778   10.1123 C   0  0  0  0  0  0  0  0  0  0  0  0
   22.1330   15.7173   10.6737 C   0  0  0  0  0  0  0  0  0  0  0  0
   21.1587   16.6291   11.0917 C   0  0  0  0  0  0  0  0  0  0  0  0
   17.2530   16.7526   12.6134 H   0  0  0  0  0  0  0  0  0  0  0  0
   18.2829   18.1803   12.3572 H   0  0  0  0  0  0  0  0  0  0  0  0
   17.9315   18.6867    6.2591 H   0  0  0  0  0  0  0  0  0  0  0  0
   19.4320   20.5505    6.8502 H   0  0  0  0  0  0  0  0  0  0  0  0
   20.3117   20.7607    9.1350 H   0  0  0  0  0  0  0  0  0  0  0  0
   15.7138   14.6198    7.3916 H   0  0  0  0  0  0  0  0  0  0  0  0
   15.3231   14.2667    9.1137 H   0  0  0  0  0  0  0  0  0  0  0  0
   22.7549   19.5264   10.2736 H   0  0  0  0  0  0  0  0  0  0  0  0
   24.4761   17.9072    9.5371 H   0  0  0  0  0  0  0  0  0  0  0  0
   24.0815   15.4714    9.7890 H   0  0  0  0  0  0  0  0  0  0  0  0
   21.9621   14.6544   10.7853 H   0  0  0  0  0  0  0  0  0  0  0  0
   20.2375   16.2646   11.5268 H   0  0  0  0  0  0  0  0  0  0  0  0
  1  2  1  0
  2  3  2  0
  3  4  1  0
  4  5  2  0
  1  6  2  0
  5  6  1  0
  3  7  1  0
  1  8  1  0
  8  9  2  0
  9 10  1  0
  2 11  1  0
 10 11  2  0
  5 12  1  0
 11 13  1  0
 13 14  1  0
 14 15  2  0
 15 16  1  0
 16 17  2  0
 17 18  1  0
 14 19  1  0
 18 19  2  0
  7 20  1  0
  7 21  1  0
  8 22  1  0
  9 23  1  0
 10 24  1  0
 12 25  1  0
 12 26  1  0
 15 27  1  0
 16 28  1  0
 17 29  1  0
 18 30  1  0
 19 31  1  0
M  END
