7BNH_BEZ_A_501
     RDKit          3D

  9  9  0  0  0  0  0  0  0  0999 V2000
   -8.6193   -0.4004   14.7231 C   0  0  0  0  0  0  0  0  0  0  0  0
   -7.5803    0.2443   14.6432 O   0  0  0  0  0  0  0  0  0  0  0  0
   -9.0971   -0.8365   15.8093 O   0  0  0  0  0  0  0  0  0  0  0  0
   -9.4060   -0.6937   13.4637 C   0  0  0  0  0  0  0  0  0  0  0  0
   -8.9007   -0.3430   12.2214 C   0  0  0  0  0  0  0  0  0  0  0  0
   -9.6355   -0.6153   11.0810 C   0  0  0  0  0  0  0  0  0  0  0  0
  -10.8795   -1.2025   11.1916 C   0  0  0  0  0  0  0  0  0  0  0  0
  -11.3964   -1.5175   12.4057 C   0  0  0  0  0  0  0  0  0  0  0  0
  -10.6624   -1.2940   13.5478 C   0  0  0  0  0  0  0  0  0  0  0  0
  1  2  2  0
  1  3  1  0
  1  4  1  0
  4  5  2  0
  5  6  1  0
  6  7  2  0
  7  8  1  0
  4  9  1  0
  8  9  2  0
M  END
