1OPK_P16_A_2
     RDKit          3D

 45 48  0  0  0  0  0  0  0  0999 V2000
   50.0070   14.5847   16.7553 O   0  0  0  0  0  0  0  0  0  0  0  0
   49.3359   15.2343   15.7128 C   0  0  1  0  0  0  0  0  0  0  0  0
   48.0130   14.5637   15.4800 C   0  0  0  0  0  0  0  0  0  0  0  0
   47.8803   13.5880   14.4804 C   0  0  0  0  0  0  0  0  0  0  0  0
   46.6613   12.9311   14.2970 C   0  0  0  0  0  0  0  0  0  0  0  0
   45.5670   13.2423   15.1078 C   0  0  0  0  0  0  0  0  0  0  0  0
   45.6787   14.2209   16.1061 C   0  0  0  0  0  0  0  0  0  0  0  0
   44.5436   14.5106   16.9400 N   0  0  0  0  0  0  0  0  0  0  0  0
   44.4957   15.5899   17.8844 C   0  0  0  0  0  0  0  0  0  0  0  0
   43.4770   15.6515   18.7822 N   0  0  0  0  0  0  0  0  0  0  0  0
   43.3852   16.6722   19.6727 C   0  0  0  0  0  0  0  0  0  0  0  0
   44.3472   17.6873   19.6700 C   0  0  0  0  0  0  0  0  0  0  0  0
   44.2833   18.7577   20.5597 C   0  0  0  0  0  0  0  0  0  0  0  0
   45.2526   19.7612   20.5067 C   0  0  0  0  0  0  0  0  0  0  0  0
   46.2883   19.6725   19.5568 C   0  0  0  0  0  0  0  0  0  0  0  0
   47.1440   20.5994   19.4922 O   0  0  0  0  0  0  0  0  0  0  0  0
   46.3646   18.5955   18.7043 N   0  0  0  0  0  0  0  0  0  0  0  0
   45.3966   17.6206   18.7345 C   0  0  0  0  0  0  0  0  0  0  0  0
   45.4327   16.5760   17.8617 N   0  0  0  0  0  0  0  0  0  0  0  0
   47.4455   18.5167   17.7054 C   0  0  2  0  0  0  0  0  0  0  0  0
   45.1697   20.9037   21.4440 C   0  0  0  0  0  0  0  0  0  0  0  0
   46.1895   21.1209   22.3949 C   0  0  0  0  0  0  0  0  0  0  0  0
   47.5749   20.0410   22.5222 Cl  0  0  0  0  0  0  0  0  0  0  0  0
   46.1026   22.2027   23.2781 C   0  0  0  0  0  0  0  0  0  0  0  0
   45.0102   23.0695   23.2248 C   0  0  0  0  0  0  0  0  0  0  0  0
   43.9961   22.8609   22.2890 C   0  0  0  0  0  0  0  0  0  0  0  0
   44.0675   21.7838   21.3986 C   0  0  0  0  0  0  0  0  0  0  0  0
   42.7731   21.5782   20.2223 Cl  0  0  0  0  0  0  0  0  0  0  0  0
   46.9172   14.8583   16.3069 C   0  0  0  0  0  0  0  0  0  0  0  0
   50.6860   15.2276   17.0882 H   0  0  0  0  0  0  0  0  0  0  0  0
   49.1774   16.3051   15.9738 H   0  0  0  0  0  0  0  0  0  0  0  0
   49.9514   15.1972   14.7859 H   0  0  0  0  0  0  0  0  0  0  0  0
   48.7216   13.3310   13.8489 H   0  0  0  0  0  0  0  0  0  0  0  0
   46.5649   12.1772   13.5265 H   0  0  0  0  0  0  0  0  0  0  0  0
   44.6274   12.7267   14.9538 H   0  0  0  0  0  0  0  0  0  0  0  0
   43.6656   13.9650   16.7850 H   0  0  0  0  0  0  0  0  0  0  0  0
   42.5614   16.6911   20.3752 H   0  0  0  0  0  0  0  0  0  0  0  0
   43.4804   18.8185   21.2861 H   0  0  0  0  0  0  0  0  0  0  0  0
   47.4401   19.4327   17.0779 H   0  0  0  0  0  0  0  0  0  0  0  0
   47.3186   17.6258   17.0535 H   0  0  0  0  0  0  0  0  0  0  0  0
   48.4424   18.4106   18.1831 H   0  0  0  0  0  0  0  0  0  0  0  0
   46.8819   22.3708   24.0107 H   0  0  0  0  0  0  0  0  0  0  0  0
   44.9488   23.9045   23.9109 H   0  0  0  0  0  0  0  0  0  0  0  0
   43.1539   23.5403   22.2544 H   0  0  0  0  0  0  0  0  0  0  0  0
   47.0399   15.5659   17.1168 H   0  0  0  0  0  0  0  0  0  0  0  0
  1  2  1  0
  2  3  1  0
  3  4  2  0
  4  5  1  0
  5  6  2  0
  6  7  1  0
  7  8  1  0
  8  9  1  0
  9 10  2  0
 10 11  1  0
 11 12  2  0
 12 13  1  0
 13 14  2  0
 14 15  1  0
 15 16  2  0
 15 17  1  0
 12 18  1  0
 17 18  1  0
  9 19  1  0
 18 19  2  0
 17 20  1  0
 14 21  1  0
 21 22  2  0
 22 23  1  0
 22 24  1  0
 24 25  2  0
 25 26  1  0
 21 27  1  0
 26 27  2  0
 27 28  1  0
  3 29  1  0
  7 29  2  0
  1 30  1  0
  2 31  1  1
  2 32  1  0
  4 33  1  0
  5 34  1  0
  6 35  1  0
  8 36  1  0
 11 37  1  0
 13 38  1  0
 20 39  1  6
 20 40  1  0
 20 41  1  0
 24 42  1  0
 25 43  1  0
 26 44  1  0
 29 45  1  0
M  END
