2BR1_PFP_A_1277
     RDKit          3D

 29 32  0  0  0  0  0  0  0  0999 V2000
   17.2673   -8.7516   13.2458 C   0  0  0  0  0  0  0  0  0  0  0  0
   16.9209   -7.5040   13.8356 O   0  0  0  0  0  0  0  0  0  0  0  0
   16.8985   -6.3445   13.0695 C   0  0  0  0  0  0  0  0  0  0  0  0
   16.9709   -6.3856   11.6937 C   0  0  0  0  0  0  0  0  0  0  0  0
   16.9502   -5.2390   10.9083 C   0  0  0  0  0  0  0  0  0  0  0  0
   16.8022   -5.1193   13.6855 C   0  0  0  0  0  0  0  0  0  0  0  0
   16.7793   -3.9664   12.9386 C   0  0  0  0  0  0  0  0  0  0  0  0
   16.8519   -3.9885   11.5364 C   0  0  0  0  0  0  0  0  0  0  0  0
   16.8433   -2.7585   10.7912 C   0  0  0  0  0  0  0  0  0  0  0  0
   15.8286   -1.8848   10.4734 C   0  0  0  0  0  0  0  0  0  0  0  0
   14.4821   -1.9098   10.7709 C   0  0  0  0  0  0  0  0  0  0  0  0
   13.8688   -2.9453   11.5303 N   0  0  0  0  0  0  0  0  0  0  0  0
   12.4529   -2.9656   11.8473 C   0  0  0  0  0  0  0  0  0  0  0  0
   12.2654   -2.1533   13.1185 C   0  0  0  0  0  0  0  0  0  0  0  0
   10.9057   -1.9102   13.3439 O   0  0  0  0  0  0  0  0  0  0  0  0
   13.7496   -0.8770   10.2980 N   0  0  0  0  0  0  0  0  0  0  0  0
   14.2943    0.1190    9.5794 C   0  0  0  0  0  0  0  0  0  0  0  0
   15.6126    0.1476    9.2854 N   0  0  0  0  0  0  0  0  0  0  0  0
   16.4021   -0.8504    9.7253 C   0  0  0  0  0  0  0  0  0  0  0  0
   17.6624   -1.1048    9.6152 O   0  0  0  0  0  0  0  0  0  0  0  0
   17.9963   -2.2159   10.2197 C   0  0  0  0  0  0  0  0  0  0  0  0
   19.3560   -2.7400   10.2526 C   0  0  0  0  0  0  0  0  0  0  0  0
   20.2850   -2.0789    9.4435 C   0  0  0  0  0  0  0  0  0  0  0  0
   21.6032   -2.4844    9.3935 C   0  0  0  0  0  0  0  0  0  0  0  0
   22.0057   -3.5729   10.1667 C   0  0  0  0  0  0  0  0  0  0  0  0
   23.3340   -3.9357   10.0792 O   0  0  0  0  0  0  0  0  0  0  0  0
   24.0171   -4.5228   11.1688 C   0  0  0  0  0  0  0  0  0  0  0  0
   21.0779   -4.2121   10.9575 C   0  0  0  0  0  0  0  0  0  0  0  0
   19.7441   -3.8116   11.0160 C   0  0  0  0  0  0  0  0  0  0  0  0
  1  2  1  0
  2  3  1  0
  3  4  2  0
  4  5  1  0
  3  6  1  0
  6  7  2  0
  5  8  2  0
  7  8  1  0
  8  9  1  0
  9 10  1  0
 10 11  2  0
 11 12  1  0
 12 13  1  0
 13 14  1  0
 14 15  1  0
 11 16  1  0
 16 17  2  0
 17 18  1  0
 10 19  1  0
 18 19  2  0
 19 20  1  0
  9 21  2  0
 20 21  1  0
 21 22  1  0
 22 23  2  0
 23 24  1  0
 24 25  2  0
 25 26  1  0
 26 27  1  0
 25 28  1  0
 22 29  1  0
 28 29  2  0
M  END
$$$$
