2BR1_PFP_A_1277
     RDKit          3D

 29 32  0  0  0  0  0  0  0  0999 V2000
   19.6202   -7.1773   13.8868 C   0  0  0  0  0  0  0  0  0  0  0  0
   18.7056   -7.1817   12.7969 O   0  0  0  0  0  0  0  0  0  0  0  0
   18.3689   -5.9957   12.1550 C   0  0  0  0  0  0  0  0  0  0  0  0
   18.8787   -4.7822   12.5643 C   0  0  0  0  0  0  0  0  0  0  0  0
   18.5555   -3.5846   11.9372 C   0  0  0  0  0  0  0  0  0  0  0  0
   17.5074   -6.0182   11.0839 C   0  0  0  0  0  0  0  0  0  0  0  0
   17.1673   -4.8523   10.4417 C   0  0  0  0  0  0  0  0  0  0  0  0
   17.6764   -3.6070   10.8442 C   0  0  0  0  0  0  0  0  0  0  0  0
   17.2818   -2.4067   10.1572 C   0  0  0  0  0  0  0  0  0  0  0  0
   16.0957   -1.7089   10.1359 C   0  0  0  0  0  0  0  0  0  0  0  0
   14.8945   -1.9399   10.7730 C   0  0  0  0  0  0  0  0  0  0  0  0
   14.6700   -3.0456   11.6404 N   0  0  0  0  0  0  0  0  0  0  0  0
   13.4078   -3.2811   12.3164 C   0  0  0  0  0  0  0  0  0  0  0  0
   12.6952   -1.9421   12.4169 C   0  0  0  0  0  0  0  0  0  0  0  0
   11.6580   -2.0125   13.3540 O   0  0  0  0  0  0  0  0  0  0  0  0
   13.9120   -1.0434   10.5324 N   0  0  0  0  0  0  0  0  0  0  0  0
   14.0880    0.0131    9.7213 C   0  0  0  0  0  0  0  0  0  0  0  0
   15.2628    0.2433    9.0950 N   0  0  0  0  0  0  0  0  0  0  0  0
   16.2855   -0.6104    9.2898 C   0  0  0  0  0  0  0  0  0  0  0  0
   17.4971   -0.6656    8.8493 O   0  0  0  0  0  0  0  0  0  0  0  0
   18.1463   -1.6998    9.3188 C   0  0  0  0  0  0  0  0  0  0  0  0
   19.5322   -2.0032    8.9837 C   0  0  0  0  0  0  0  0  0  0  0  0
   19.9406   -3.3210    9.2099 C   0  0  0  0  0  0  0  0  0  0  0  0
   21.2296   -3.7262    8.9291 C   0  0  0  0  0  0  0  0  0  0  0  0
   22.1326   -2.7981    8.4114 C   0  0  0  0  0  0  0  0  0  0  0  0
   23.4073   -3.2563    8.1488 O   0  0  0  0  0  0  0  0  0  0  0  0
   24.3011   -2.5344    7.3250 C   0  0  0  0  0  0  0  0  0  0  0  0
   21.7136   -1.5050    8.1951 C   0  0  0  0  0  0  0  0  0  0  0  0
   20.4144   -1.0844    8.4748 C   0  0  0  0  0  0  0  0  0  0  0  0
  1  2  1  0
  2  3  1  0
  3  4  2  0
  4  5  1  0
  3  6  1  0
  6  7  2  0
  5  8  2  0
  7  8  1  0
  8  9  1  0
  9 10  1  0
 10 11  2  0
 11 12  1  0
 12 13  1  0
 13 14  1  0
 14 15  1  0
 11 16  1  0
 16 17  2  0
 17 18  1  0
 10 19  1  0
 18 19  2  0
 19 20  1  0
  9 21  2  0
 20 21  1  0
 21 22  1  0
 22 23  2  0
 23 24  1  0
 24 25  2  0
 25 26  1  0
 26 27  1  0
 25 28  1  0
 22 29  1  0
 28 29  2  0
M  END
$$$$
