2BR1_PFP_A_1277
     RDKit          3D

 29 32  0  0  0  0  0  0  0  0999 V2000
   17.9247   -8.4173   12.7644 C   0  0  0  0  0  0  0  0  0  0  0  0
   18.6347   -7.2002   12.9614 O   0  0  0  0  0  0  0  0  0  0  0  0
   18.2740   -6.0533   12.2639 C   0  0  0  0  0  0  0  0  0  0  0  0
   17.3967   -6.0991   11.2018 C   0  0  0  0  0  0  0  0  0  0  0  0
   17.0224   -4.9651   10.4906 C   0  0  0  0  0  0  0  0  0  0  0  0
   18.7973   -4.8363   12.6311 C   0  0  0  0  0  0  0  0  0  0  0  0
   18.4481   -3.6959   11.9491 C   0  0  0  0  0  0  0  0  0  0  0  0
   17.5560   -3.7229   10.8649 C   0  0  0  0  0  0  0  0  0  0  0  0
   17.2297   -2.5096   10.1650 C   0  0  0  0  0  0  0  0  0  0  0  0
   16.0697   -1.7719   10.0983 C   0  0  0  0  0  0  0  0  0  0  0  0
   14.8372   -1.9623   10.6872 C   0  0  0  0  0  0  0  0  0  0  0  0
   14.5414   -3.0601   11.5431 N   0  0  0  0  0  0  0  0  0  0  0  0
   13.2195   -3.3090   12.0874 C   0  0  0  0  0  0  0  0  0  0  0  0
   12.9302   -2.2024   13.0887 C   0  0  0  0  0  0  0  0  0  0  0  0
   12.6484   -2.7468   14.3469 O   0  0  0  0  0  0  0  0  0  0  0  0
   13.8959   -1.0328   10.4098 N   0  0  0  0  0  0  0  0  0  0  0  0
   14.1395    0.0175    9.6082 C   0  0  0  0  0  0  0  0  0  0  0  0
   15.3451    0.2079    9.0290 N   0  0  0  0  0  0  0  0  0  0  0  0
   16.3298   -0.6801    9.2623 C   0  0  0  0  0  0  0  0  0  0  0  0
   17.5552   -0.7762    8.8697 O   0  0  0  0  0  0  0  0  0  0  0  0
   18.1501   -1.8321    9.3625 C   0  0  0  0  0  0  0  0  0  0  0  0
   19.5369   -2.1822    9.0817 C   0  0  0  0  0  0  0  0  0  0  0  0
   20.3490   -1.1404    8.6236 C   0  0  0  0  0  0  0  0  0  0  0  0
   21.6800   -1.3517    8.3263 C   0  0  0  0  0  0  0  0  0  0  0  0
   22.2146   -2.6294    8.4888 C   0  0  0  0  0  0  0  0  0  0  0  0
   23.5498   -2.7849    8.1774 O   0  0  0  0  0  0  0  0  0  0  0  0
   24.0451   -3.9791    7.6055 C   0  0  0  0  0  0  0  0  0  0  0  0
   21.4008   -3.6434    8.9406 C   0  0  0  0  0  0  0  0  0  0  0  0
   20.0553   -3.4418    9.2440 C   0  0  0  0  0  0  0  0  0  0  0  0
  1  2  1  0
  2  3  1  0
  3  4  2  0
  4  5  1  0
  3  6  1  0
  6  7  2  0
  5  8  2  0
  7  8  1  0
  8  9  1  0
  9 10  1  0
 10 11  2  0
 11 12  1  0
 12 13  1  0
 13 14  1  0
 14 15  1  0
 11 16  1  0
 16 17  2  0
 17 18  1  0
 10 19  1  0
 18 19  2  0
 19 20  1  0
  9 21  2  0
 20 21  1  0
 21 22  1  0
 22 23  2  0
 23 24  1  0
 24 25  2  0
 25 26  1  0
 26 27  1  0
 25 28  1  0
 22 29  1  0
 28 29  2  0
M  END
$$$$
