2BR1_PFP_A_1277
     RDKit          3D

 29 32  0  0  0  0  0  0  0  0999 V2000
   19.2186   -7.2893   14.0372 C   0  0  0  0  0  0  0  0  0  0  0  0
   18.5301   -7.3464   12.7934 O   0  0  0  0  0  0  0  0  0  0  0  0
   18.1755   -6.1775   12.1301 C   0  0  0  0  0  0  0  0  0  0  0  0
   17.3181   -6.1904   11.0509 C   0  0  0  0  0  0  0  0  0  0  0  0
   16.9503   -5.0340   10.3732 C   0  0  0  0  0  0  0  0  0  0  0  0
   18.6848   -4.9714   12.5496 C   0  0  0  0  0  0  0  0  0  0  0  0
   18.3414   -3.8096   11.9017 C   0  0  0  0  0  0  0  0  0  0  0  0
   17.4697   -3.8030   10.8008 C   0  0  0  0  0  0  0  0  0  0  0  0
   17.1491   -2.5675   10.1381 C   0  0  0  0  0  0  0  0  0  0  0  0
   15.9970   -1.8154   10.1053 C   0  0  0  0  0  0  0  0  0  0  0  0
   14.7693   -2.0081   10.7035 C   0  0  0  0  0  0  0  0  0  0  0  0
   14.4708   -3.1255   11.5326 N   0  0  0  0  0  0  0  0  0  0  0  0
   13.3486   -3.1550   12.4520 C   0  0  0  0  0  0  0  0  0  0  0  0
   12.1634   -2.5294   11.7345 C   0  0  0  0  0  0  0  0  0  0  0  0
   11.5383   -1.5868   12.5590 O   0  0  0  0  0  0  0  0  0  0  0  0
   13.8355   -1.0610   10.4626 N   0  0  0  0  0  0  0  0  0  0  0  0
   14.0817    0.0081    9.6870 C   0  0  0  0  0  0  0  0  0  0  0  0
   15.2827    0.2009    9.0989 N   0  0  0  0  0  0  0  0  0  0  0  0
   16.2598   -0.7041    9.2962 C   0  0  0  0  0  0  0  0  0  0  0  0
   17.4794   -0.8031    8.8867 O   0  0  0  0  0  0  0  0  0  0  0  0
   18.0678   -1.8785    9.3434 C   0  0  0  0  0  0  0  0  0  0  0  0
   19.4472   -2.2362    9.0367 C   0  0  0  0  0  0  0  0  0  0  0  0
   20.2728   -1.1864    8.6234 C   0  0  0  0  0  0  0  0  0  0  0  0
   21.5985   -1.4038    8.3073 C   0  0  0  0  0  0  0  0  0  0  0  0
   22.1139   -2.6960    8.4048 C   0  0  0  0  0  0  0  0  0  0  0  0
   23.4445   -2.8569    8.0772 O   0  0  0  0  0  0  0  0  0  0  0  0
   24.3520   -3.4993    8.9504 C   0  0  0  0  0  0  0  0  0  0  0  0
   21.2869   -3.7176    8.8132 C   0  0  0  0  0  0  0  0  0  0  0  0
   19.9466   -3.5100    9.1351 C   0  0  0  0  0  0  0  0  0  0  0  0
  1  2  1  0
  2  3  1  0
  3  4  2  0
  4  5  1  0
  3  6  1  0
  6  7  2  0
  5  8  2  0
  7  8  1  0
  8  9  1  0
  9 10  1  0
 10 11  2  0
 11 12  1  0
 12 13  1  0
 13 14  1  0
 14 15  1  0
 11 16  1  0
 16 17  2  0
 17 18  1  0
 10 19  1  0
 18 19  2  0
 19 20  1  0
  9 21  2  0
 20 21  1  0
 21 22  1  0
 22 23  2  0
 23 24  1  0
 24 25  2  0
 25 26  1  0
 26 27  1  0
 25 28  1  0
 22 29  1  0
 28 29  2  0
M  END
$$$$
