2BR1_PFP_A_1277
     RDKit          3D

 29 32  0  0  0  0  0  0  0  0999 V2000
   17.6664   -8.3842   12.6538 C   0  0  0  0  0  0  0  0  0  0  0  0
   18.2110   -7.1530   13.1143 O   0  0  0  0  0  0  0  0  0  0  0  0
   17.9410   -5.9675   12.4409 C   0  0  0  0  0  0  0  0  0  0  0  0
   18.4116   -4.7544   12.8958 C   0  0  0  0  0  0  0  0  0  0  0  0
   18.1538   -3.5572   12.2384 C   0  0  0  0  0  0  0  0  0  0  0  0
   17.1873   -5.9900   11.2914 C   0  0  0  0  0  0  0  0  0  0  0  0
   16.9140   -4.8244   10.6173 C   0  0  0  0  0  0  0  0  0  0  0  0
   17.3847   -3.5796   11.0654 C   0  0  0  0  0  0  0  0  0  0  0  0
   17.0615   -2.3797   10.3414 C   0  0  0  0  0  0  0  0  0  0  0  0
   15.9000   -1.6470   10.2506 C   0  0  0  0  0  0  0  0  0  0  0  0
   14.6624   -1.8312   10.8307 C   0  0  0  0  0  0  0  0  0  0  0  0
   14.3616   -2.9149   11.7026 N   0  0  0  0  0  0  0  0  0  0  0  0
   13.0200   -3.2079   12.1717 C   0  0  0  0  0  0  0  0  0  0  0  0
   12.8922   -2.6155   13.5658 C   0  0  0  0  0  0  0  0  0  0  0  0
   12.8744   -1.2176   13.5002 O   0  0  0  0  0  0  0  0  0  0  0  0
   13.7210   -0.9097   10.5280 N   0  0  0  0  0  0  0  0  0  0  0  0
   13.9692    0.1273    9.7106 C   0  0  0  0  0  0  0  0  0  0  0  0
   15.1798    0.3116    9.1400 N   0  0  0  0  0  0  0  0  0  0  0  0
   16.1649   -0.5691    9.3983 C   0  0  0  0  0  0  0  0  0  0  0  0
   17.3944   -0.6680    9.0194 O   0  0  0  0  0  0  0  0  0  0  0  0
   17.9877   -1.7131    9.5362 C   0  0  0  0  0  0  0  0  0  0  0  0
   19.3783   -2.0636    9.2750 C   0  0  0  0  0  0  0  0  0  0  0  0
   19.7303   -3.3932    9.5256 C   0  0  0  0  0  0  0  0  0  0  0  0
   21.0181   -3.8420    9.3139 C   0  0  0  0  0  0  0  0  0  0  0  0
   21.9772   -2.9464    8.8419 C   0  0  0  0  0  0  0  0  0  0  0  0
   23.2480   -3.4475    8.6476 O   0  0  0  0  0  0  0  0  0  0  0  0
   24.2677   -2.6742    8.0469 C   0  0  0  0  0  0  0  0  0  0  0  0
   21.6133   -1.6411    8.6006 C   0  0  0  0  0  0  0  0  0  0  0  0
   20.3160   -1.1766    8.8108 C   0  0  0  0  0  0  0  0  0  0  0  0
  1  2  1  0
  2  3  1  0
  3  4  2  0
  4  5  1  0
  3  6  1  0
  6  7  2  0
  5  8  2  0
  7  8  1  0
  8  9  1  0
  9 10  1  0
 10 11  2  0
 11 12  1  0
 12 13  1  0
 13 14  1  0
 14 15  1  0
 11 16  1  0
 16 17  2  0
 17 18  1  0
 10 19  1  0
 18 19  2  0
 19 20  1  0
  9 21  2  0
 20 21  1  0
 21 22  1  0
 22 23  2  0
 23 24  1  0
 24 25  2  0
 25 26  1  0
 26 27  1  0
 25 28  1  0
 22 29  1  0
 28 29  2  0
M  END
$$$$
