7VJT_7IJ_B_1801
     RDKit          3D

 27 31  0  0  0  0  0  0  0  0999 V2000
  -14.6080  -19.6120  151.2700 C   0  0  0  0  0  0  0  0  0  0  0  0
  -13.6140  -18.8200  151.8280 C   0  0  0  0  0  0  0  0  0  0  0  0
  -12.1750  -20.7400  152.0810 C   0  0  0  0  0  0  0  0  0  0  0  0
  -18.3850  -22.7890  149.1250 C   0  0  0  0  0  0  0  0  0  0  0  0
  -18.8240  -24.0430  148.7240 C   0  0  0  0  0  0  0  0  0  0  0  0
  -13.7910  -23.8380  150.8470 C   0  0  0  0  0  0  0  0  0  0  0  0
  -15.9410  -26.2360  149.5540 C   0  0  0  0  0  0  0  0  0  0  0  0
  -12.4070  -19.3860  152.2220 C   0  0  0  0  0  0  0  0  0  0  0  0
  -15.1020  -23.3210  150.4000 C   0  0  0  0  0  0  0  0  0  0  0  0
  -17.1090  -22.6760  149.6660 C   0  0  0  0  0  0  0  0  0  0  0  0
  -15.3690  -21.8840  150.5300 C   0  0  0  0  0  0  0  0  0  0  0  0
  -16.7220  -25.0710  149.3970 C   0  0  0  0  0  0  0  0  0  0  0  0
  -18.0070  -25.1690  148.8680 C   0  0  0  0  0  0  0  0  0  0  0  0
  -14.9850  -26.5850  148.4730 N   0  0  0  0  0  0  0  0  0  0  0  0
  -13.1600  -21.5330  151.5270 C   0  0  0  0  0  0  0  0  0  0  0  0
  -15.6800  -27.0070  147.2570 C   0  0  0  0  0  0  0  0  0  0  0  0
  -14.6520  -27.2390  146.1500 C   0  0  0  0  0  0  0  0  0  0  0  0
  -13.7650  -28.4150  146.5330 C   0  0  0  0  0  0  0  0  0  0  0  0
  -13.1220  -28.1670  147.8990 C   0  0  0  0  0  0  0  0  0  0  0  0
  -14.1550  -27.7130  148.9250 C   0  0  0  0  0  0  0  0  0  0  0  0
  -16.2920  -23.7970  149.8210 C   0  0  0  0  0  0  0  0  0  0  0  0
  -14.3640  -20.9750  151.1250 C   0  0  0  0  0  0  0  0  0  0  0  0
  -16.6010  -21.4810  150.0950 O   0  0  0  0  0  0  0  0  0  0  0  0
  -12.8270  -22.9450  151.3950 O   0  0  0  0  0  0  0  0  0  0  0  0
  -13.4310  -25.1020  150.7830 O   0  0  0  0  0  0  0  0  0  0  0  0
  -18.4800  -26.3540  148.4740 O   0  0  0  0  0  0  0  0  0  0  0  0
  -11.4470  -18.6460  152.7660 O   0  0  0  0  0  0  0  0  0  0  0  0
  1  2  2  0
  4  5  2  0
  3  8  2  0
  2  8  1  0
  6  9  1  0
  4 10  1  0
  9 11  2  0
  7 12  1  0
 12 13  2  0
  5 13  1  0
  7 14  1  0
  3 15  1  0
 14 16  1  0
 16 17  1  0
 17 18  1  0
 18 19  1  0
 14 20  1  0
 19 20  1  0
  9 21  1  0
 10 21  2  0
 12 21  1  0
 15 22  2  0
  1 22  1  0
 11 22  1  0
 11 23  1  0
 10 23  1  0
 15 24  1  0
  6 24  1  0
  6 25  2  0
 13 26  1  0
  8 27  1  0
M  END
$$$$
7VJT_7IJ_A_1801
     RDKit          3D

 27 31  0  0  0  0  0  0  0  0999 V2000
   -2.9360  -18.6130  165.2370 C   0  0  0  0  0  0  0  0  0  0  0  0
   -3.9940  -17.8950  164.6850 C   0  0  0  0  0  0  0  0  0  0  0  0
   -5.2900  -19.9140  164.4430 C   0  0  0  0  0  0  0  0  0  0  0  0
    1.0660  -21.4480  167.3850 C   0  0  0  0  0  0  0  0  0  0  0  0
    1.5990  -22.6660  167.8100 C   0  0  0  0  0  0  0  0  0  0  0  0
   -3.4150  -22.8900  165.6810 C   0  0  0  0  0  0  0  0  0  0  0  0
   -1.0780  -25.0990  167.0100 C   0  0  0  0  0  0  0  0  0  0  0  0
   -5.1590  -18.5440  164.2950 C   0  0  0  0  0  0  0  0  0  0  0  0
   -2.1530  -22.2710  166.1240 C   0  0  0  0  0  0  0  0  0  0  0  0
   -0.2080  -21.4620  166.8430 C   0  0  0  0  0  0  0  0  0  0  0  0
   -2.0050  -20.8210  165.9700 C   0  0  0  0  0  0  0  0  0  0  0  0
   -0.3890  -23.8780  167.1400 C   0  0  0  0  0  0  0  0  0  0  0  0
    0.8960  -23.8680  167.6830 C   0  0  0  0  0  0  0  0  0  0  0  0
   -2.0810  -25.4170  168.0460 N   0  0  0  0  0  0  0  0  0  0  0  0
   -4.2480  -20.6420  164.9910 C   0  0  0  0  0  0  0  0  0  0  0  0
   -1.4040  -25.7270  169.3090 C   0  0  0  0  0  0  0  0  0  0  0  0
   -2.4330  -26.0820  170.3870 C   0  0  0  0  0  0  0  0  0  0  0  0
   -3.2300  -27.3210  169.9910 C   0  0  0  0  0  0  0  0  0  0  0  0
   -3.8500  -27.1070  168.6120 C   0  0  0  0  0  0  0  0  0  0  0  0
   -2.8080  -26.6250  167.6070 C   0  0  0  0  0  0  0  0  0  0  0  0
   -0.9290  -22.6480  166.7070 C   0  0  0  0  0  0  0  0  0  0  0  0
   -3.0770  -19.9880  165.3880 C   0  0  0  0  0  0  0  0  0  0  0  0
   -0.8160  -20.3220  166.4060 O   0  0  0  0  0  0  0  0  0  0  0  0
   -4.4580  -22.0770  165.1220 O   0  0  0  0  0  0  0  0  0  0  0  0
   -3.6430  -24.1840  165.7790 O   0  0  0  0  0  0  0  0  0  0  0  0
    1.4760  -25.0020  168.1210 O   0  0  0  0  0  0  0  0  0  0  0  0
   -6.1700  -17.8680  163.7600 O   0  0  0  0  0  0  0  0  0  0  0  0
  1  2  2  0
  4  5  2  0
  3  8  2  0
  2  8  1  0
  6  9  1  0
  4 10  1  0
  9 11  2  0
  7 12  1  0
 12 13  2  0
  5 13  1  0
  7 14  1  0
  3 15  1  0
 14 16  1  0
 16 17  1  0
 17 18  1  0
 18 19  1  0
 14 20  1  0
 19 20  1  0
  9 21  1  0
 10 21  2  0
 12 21  1  0
 15 22  2  0
  1 22  1  0
 11 22  1  0
 11 23  1  0
 10 23  1  0
 15 24  1  0
  6 24  1  0
  6 25  2  0
 13 26  1  0
  8 27  1  0
M  END
$$$$
