8DW5_FQ7_A_201
     RDKit          3D

 27 28  0  0  0  0  0  0  0  0999 V2000
   -0.3204    2.4999    7.8677 C   0  0  0  0  0  0  0  0  0  0  0  0
   -1.3896    2.7253    7.0031 C   0  0  0  0  0  0  0  0  0  0  0  0
   -1.1830    2.7419    5.6225 C   0  0  0  0  0  0  0  0  0  0  0  0
    2.4982    1.9906    5.4671 N   0  0  0  0  0  0  0  0  0  0  0  0
    1.2824    3.4150    3.0724 O   0  0  0  0  0  0  0  0  0  0  0  0
    0.2764    2.6173    3.6122 C   0  0  0  0  0  0  0  0  0  0  0  0
   -0.4557    1.9459    2.8366 O   0  0  0  0  0  0  0  0  0  0  0  0
    0.1017    2.5392    5.0840 C   0  0  0  0  0  0  0  0  0  0  0  0
    0.9584    2.2834    7.3546 C   0  0  0  0  0  0  0  0  0  0  0  0
    1.1873    2.3040    5.9674 C   0  0  0  0  0  0  0  0  0  0  0  0
    2.9713    2.3775    4.1645 C   0  0  0  0  0  0  0  0  0  0  0  0
    2.4172    3.5034    3.5353 C   0  0  0  0  0  0  0  0  0  0  0  0
    2.8735    3.9081    2.2762 C   0  0  0  0  0  0  0  0  0  0  0  0
    2.1646    5.3098    1.4952 Cl  0  0  0  0  0  0  0  0  0  0  0  0
    3.8957    3.1966    1.6408 C   0  0  0  0  0  0  0  0  0  0  0  0
    4.4669    2.0841    2.2659 C   0  0  0  0  0  0  0  0  0  0  0  0
    5.7604    1.2020    1.4747 Cl  0  0  0  0  0  0  0  0  0  0  0  0
    4.0121    1.6778    3.5252 C   0  0  0  0  0  0  0  0  0  0  0  0
   -0.4845    2.4812    8.9373 H   0  0  0  0  0  0  0  0  0  0  0  0
   -2.3818    2.8891    7.4033 H   0  0  0  0  0  0  0  0  0  0  0  0
   -2.0305    2.9315    4.9756 H   0  0  0  0  0  0  0  0  0  0  0  0
    3.1622    1.5069    6.1134 H   0  0  0  0  0  0  0  0  0  0  0  0
    1.4218    3.4699    2.0705 H   0  0  0  0  0  0  0  0  0  0  0  0
    1.7719    2.0779    8.0390 H   0  0  0  0  0  0  0  0  0  0  0  0
    1.6257    4.0603    4.0216 H   0  0  0  0  0  0  0  0  0  0  0  0
    4.2491    3.5107    0.6668 H   0  0  0  0  0  0  0  0  0  0  0  0
    4.4803    0.8287    4.0059 H   0  0  0  0  0  0  0  0  0  0  0  0
  1  2  4  0
  2  3  4  0
  5  6  1  0
  6  7  2  0
  6  8  1  0
  3  8  4  0
  1  9  4  0
  9 10  4  0
  4 10  1  0
  8 10  4  0
  4 11  1  0
 11 12  4  0
 12 13  4  0
 13 14  1  0
 13 15  4  0
 15 16  4  0
 16 17  1  0
 16 18  4  0
 11 18  4  0
  1 19  1  0
  2 20  1  0
  3 21  1  0
  4 22  1  0
  5 23  1  0
  9 24  1  0
 12 25  1  0
 15 26  1  0
 18 27  1  0
M  END
