7MGY_ZD1_A_701
     RDKit          3D

 23 24  0  0  0  0  0  0  0  0999 V2000
   26.6837  -30.2132  311.5075 C   0  0  1  0  0  0  0  0  0  0  0  0
   25.4078  -29.9673  312.2667 C   0  0  0  0  0  0  0  0  0  0  0  0
   24.2795  -29.4740  311.7446 C   0  0  0  0  0  0  0  0  0  0  0  0
   22.9372  -29.5687  312.4653 C   0  0  0  0  0  0  0  0  0  0  0  0
   24.1634  -29.0739  310.2947 C   0  0  2  0  0  0  0  0  0  0  0  0
   22.9970  -27.3332  309.0724 C   0  0  1  0  0  0  0  0  0  0  0  0
   23.3025  -25.9137  308.5312 C   0  0  1  0  0  0  0  0  0  0  0  0
   22.8297  -24.8167  309.5443 C   0  0  2  0  0  0  0  0  0  0  0  0
   21.3160  -25.0193  309.8628 C   0  0  1  0  0  0  0  0  0  0  0  0
   21.2025  -26.4554  310.4763 C   0  0  1  0  0  0  0  0  0  0  0  0
   19.7022  -26.8206  310.8633 C   0  0  0  0  0  0  0  0  0  0  0  0
   25.4686  -29.3955  309.4393 C   0  0  1  0  0  0  0  0  0  0  0  0
   26.7394  -29.2827  310.2757 C   0  0  1  0  0  0  0  0  0  0  0  0
   27.7867  -29.9431  312.4160 N   0  0  0  0  0  0  0  0  0  0  0  0
   22.4427  -30.8834  312.3622 O   0  0  0  0  0  0  0  0  0  0  0  0
   23.8786  -27.6744  310.1534 O   0  0  0  0  0  0  0  0  0  0  0  0
   24.7061  -25.8241  308.3980 O   0  0  0  0  0  0  0  0  0  0  0  0
   22.9567  -23.5557  308.9300 O   0  0  0  0  0  0  0  0  0  0  0  0
   20.9482  -24.0472  310.8355 O   0  0  0  0  0  0  0  0  0  0  0  0
   18.8775  -26.3179  309.8218 O   0  0  0  0  0  0  0  0  0  0  0  0
   21.6620  -27.4142  309.5181 O   0  0  0  0  0  0  0  0  0  0  0  0
   25.3904  -30.7600  309.1150 O   0  0  0  0  0  0  0  0  0  0  0  0
   26.8382  -27.9237  310.6346 O   0  0  0  0  0  0  0  0  0  0  0  0
  1  2  1  0
  2  3  2  0
  3  4  1  0
  3  5  1  0
  6  7  1  0
  7  8  1  0
  8  9  1  0
  9 10  1  0
 10 11  1  6
  5 12  1  0
 12 13  1  0
  1 13  1  0
  1 14  1  1
  4 15  1  0
  6 16  1  1
  5 16  1  1
  7 17  1  1
  8 18  1  6
  9 19  1  1
 11 20  1  0
 10 21  1  0
  6 21  1  0
 12 22  1  1
 13 23  1  1
M  END
