7ZF0_DHR_A_508
     RDKit          3D

 11 11  0  0  0  0  0  0  0  0999 V2000
   31.5299   55.9818   46.9142 N   0  0  0  0  0  0  0  0  0  0  0  0
   31.7686   55.2841   47.8063 C   0  0  0  0  0  0  0  0  0  0  0  0
   31.7934   55.1931   50.1723 C   0  0  0  0  0  0  0  0  0  0  0  0
   32.6928   56.1883   50.5599 C   0  0  0  0  0  0  0  0  0  0  0  0
   30.6543   54.9718   50.9386 C   0  0  0  0  0  0  0  0  0  0  0  0
   30.3715   55.6976   52.0734 C   0  0  0  0  0  0  0  0  0  0  0  0
   32.4279   56.9358   51.7047 C   0  0  0  0  0  0  0  0  0  0  0  0
   31.2888   56.6838   52.4339 C   0  0  0  0  0  0  0  0  0  0  0  0
   31.0673   57.4563   53.5697 O   0  0  0  0  0  0  0  0  0  0  0  0
   32.0820   54.4076   48.9599 C   0  0  2  0  0  0  0  0  0  0  0  0
   33.4124   54.0343   48.8232 O   0  0  0  0  0  0  0  0  0  0  0  0
  1  2  3  0
  3  4  2  0
  3  5  1  0
  5  6  2  0
  4  7  1  0
  6  8  1  0
  7  8  2  0
  8  9  1  0
  2 10  1  0
  3 10  1  0
 10 11  1  1
M  END
$$$$
