
     RDKit          3D

 30 34  0  0  0  0  0  0  0  0999 V2000
  -25.6109    4.3614   -5.2529 C   0  0  0  0  0  0  0  0  0  0  0  0
  -24.3776    1.5979   -1.7542 C   0  0  0  0  0  0  0  0  0  0  0  0
  -23.5640    2.4511   -2.0924 O   0  0  0  0  0  0  0  0  0  0  0  0
  -23.9102    0.2233   -1.4243 C   0  0  0  0  0  0  0  0  0  0  0  0
  -24.4756   -2.0804   -0.9804 C   0  0  0  0  0  0  0  0  0  0  0  0
  -23.1265   -2.3874   -0.7971 C   0  0  0  0  0  0  0  0  0  0  0  0
  -22.1503   -1.3856   -0.9014 C   0  0  0  0  0  0  0  0  0  0  0  0
  -20.6882   -1.7305   -0.7185 C   0  0  0  0  0  0  0  0  0  0  0  0
  -18.7392   -2.1779   -2.0136 C   0  0  0  0  0  0  0  0  0  0  0  0
  -17.7305   -1.5067   -1.3197 C   0  0  0  0  0  0  0  0  0  0  0  0
  -16.4118   -1.9786   -1.4609 C   0  0  0  0  0  0  0  0  0  0  0  0
  -16.2064   -3.0812   -2.2821 C   0  0  0  0  0  0  0  0  0  0  0  0
  -14.2057   -2.4778   -1.4721 C   0  0  0  0  0  0  0  0  0  0  0  0
  -15.1380   -1.6035   -0.9521 C   0  0  0  0  0  0  0  0  0  0  0  0
  -18.3809   -3.2711   -2.8040 C   0  0  0  0  0  0  0  0  0  0  0  0
  -25.7327    1.8355   -1.6240 N   0  0  0  0  0  0  0  0  0  0  0  0
  -26.3331    3.0479   -2.0922 C   0  0  1  0  0  0  0  0  0  0  0  0
  -26.9338    3.1323   -3.4811 C   0  0  1  0  0  0  0  0  0  0  0  0
  -27.8227    3.1474   -2.2652 C   0  0  0  0  0  0  0  0  0  0  0  0
  -26.6779    4.3618   -4.3344 C   0  0  0  0  0  0  0  0  0  0  0  0
  -27.4487    5.5365   -4.2659 C   0  0  0  0  0  0  0  0  0  0  0  0
  -27.1735    6.6471   -5.0712 C   0  0  0  0  0  0  0  0  0  0  0  0
  -26.1135    6.6114   -5.9702 C   0  0  0  0  0  0  0  0  0  0  0  0
  -25.3297    5.4672   -6.0615 C   0  0  0  0  0  0  0  0  0  0  0  0
  -24.8729   -0.7826   -1.2863 C   0  0  0  0  0  0  0  0  0  0  0  0
  -20.0711   -1.8710   -1.9980 O   0  0  0  0  0  0  0  0  0  0  0  0
  -14.8692   -3.3684   -2.2779 N   0  0  0  0  0  0  0  0  0  0  0  0
  -17.1304   -3.7695   -2.9745 N   0  0  0  0  0  0  0  0  0  0  0  0
  -22.5544   -0.0785   -1.2256 C   0  0  0  0  0  0  0  0  0  0  0  0
  -25.6562   -3.3237   -0.8327 Cl  0  0  0  0  0  0  0  0  0  0  0  0
  2  3  2  0
  2  4  1  0
  5  6  4  0
  6  7  4  0
  7  8  1  0
  9 10  4  0
 10 11  4  0
 11 12  4  0
 11 14  4  0
 13 14  4  0
  9 15  4  0
  2 16  1  0
 17 16  1  6
 17 18  1  0
 17 19  1  0
 18 19  1  0
 18 20  1  1
  1 20  4  0
 20 21  4  0
 21 22  4  0
 22 23  4  0
 23 24  4  0
  1 24  4  0
  4 25  4  0
  5 25  4  0
  8 26  1  0
  9 26  1  0
 12 27  4  0
 13 27  4  0
 12 28  4  0
 15 28  4  0
  4 29  4  0
  7 29  4  0
  5 30  1  0
M  END
