1N2J_PAF_A_1001
     RDKit          3D

 10  9  0  0  0  0  0  0  0  0999 V2000
   33.3200   33.2000   44.9730 O   0  0  0  0  0  0  0  0  0  0  0  0
   33.3260   34.2000   45.8110 C   0  0  0  0  0  0  0  0  0  0  0  0
   33.2480   35.3780   45.4420 O   0  0  0  0  0  0  0  0  0  0  0  0
   33.4000   33.8580   47.3360 C   0  0  2  0  0  0  0  0  0  0  0  0
   34.1460   32.6030   47.4910 O   0  0  0  0  0  0  0  0  0  0  0  0
   31.9500   33.7180   47.9770 C   0  0  0  0  0  0  0  0  0  0  0  0
   31.1660   35.0230   47.8550 C   0  0  0  0  0  0  0  0  0  0  0  0
   31.1820   32.5830   47.3280 C   0  0  0  0  0  0  0  0  0  0  0  0
   32.1890   33.4150   49.4770 C   0  0  0  0  0  0  0  0  0  0  0  0
   32.9210   34.4570   50.1000 O   0  0  0  0  0  0  0  0  0  0  0  0
  1  2  1  0
  2  3  2  0
  2  4  1  0
  4  5  1  6
  4  6  1  0
  6  7  1  0
  6  8  1  0
  6  9  1  0
  9 10  1  0
M  CHG  1   1  -1
M  END
$$$$
