
     RDKit          3D

 19 21  0  0  0  0  0  0  0  0999 V2000
    1.1158   69.2053   40.5497 O   0  0  0  0  0  0  0  0  0  0  0  0
    1.1165   70.1788   39.8069 C   0  0  0  0  0  0  0  0  0  0  0  0
    2.2486   70.3195   38.8606 C   0  0  0  0  0  0  0  0  0  0  0  0
    2.3049   69.5204   37.7174 C   0  0  0  0  0  0  0  0  0  0  0  0
    3.3741   69.6624   36.8360 C   0  0  0  0  0  0  0  0  0  0  0  0
    4.3537   70.5967   37.1354 C   0  0  0  0  0  0  0  0  0  0  0  0
    4.3378   71.3746   38.2415 N   0  0  0  0  0  0  0  0  0  0  0  0
    3.2927   71.2066   39.0879 C   0  0  0  0  0  0  0  0  0  0  0  0
    0.1462   71.1610   39.7069 N   0  0  0  0  0  0  0  0  0  0  0  0
   -1.2650   71.0077   39.7974 C   0  0  0  0  0  0  0  0  0  0  0  0
   -1.8461   70.2733   40.8395 C   0  0  0  0  0  0  0  0  0  0  0  0
   -3.2278   70.1357   40.9374 C   0  0  0  0  0  0  0  0  0  0  0  0
   -4.0541   70.7354   39.9959 C   0  0  0  0  0  0  0  0  0  0  0  0
   -3.5149   71.4825   38.9420 C   0  0  0  0  0  0  0  0  0  0  0  0
   -4.3830   72.0769   38.0106 C   0  0  0  0  0  0  0  0  0  0  0  0
   -3.8930   72.8273   36.9459 C   0  0  0  0  0  0  0  0  0  0  0  0
   -2.5248   72.9915   36.7983 C   0  0  0  0  0  0  0  0  0  0  0  0
   -1.6474   72.4060   37.7170 C   0  0  0  0  0  0  0  0  0  0  0  0
   -2.1069   71.6350   38.8195 C   0  0  0  0  0  0  0  0  0  0  0  0
  1  2  2  0
  2  3  1  0
  3  4  4  0
  4  5  4  0
  5  6  4  0
  6  7  4  0
  7  8  4  0
  3  8  4  0
  2  9  1  0
  9 10  1  0
 10 11  4  0
 11 12  4  0
 12 13  4  0
 13 14  4  0
 14 15  4  0
 15 16  4  0
 16 17  4  0
 17 18  4  0
 18 19  4  0
 14 19  4  0
 10 19  4  0
M  END
