
     RDKit          3D

 29 30  0  0  0  0  0  0  0  0999 V2000
  -10.2741    3.3769   16.9875 C   0  0  1  0  0  0  0  0  0  0  0  0
   -8.2029    2.9590   15.7761 C   0  0  0  0  0  0  0  0  0  0  0  0
  -11.6667    2.8737   16.5978 C   0  0  2  0  0  0  0  0  0  0  0  0
  -12.5015    3.3247   17.7737 C   0  0  2  0  0  0  0  0  0  0  0  0
   -7.7487    3.9717   13.7473 C   0  0  0  0  0  0  0  0  0  0  0  0
  -11.8750    4.6722   18.1182 C   0  0  2  0  0  0  0  0  0  0  0  0
   -9.0143    4.7275   13.7737 C   0  0  0  0  0  0  0  0  0  0  0  0
  -12.4727    5.8441   17.3366 C   0  0  0  0  0  0  0  0  0  0  0  0
   -9.7937    4.5191   14.8330 C   0  0  0  0  0  0  0  0  0  0  0  0
  -11.7383    1.5249   16.4937 F   0  0  0  0  0  0  0  0  0  0  0  0
   -9.4167    3.6545   15.8368 N   0  0  0  0  0  0  0  0  0  0  0  0
   -7.3893    3.1550   14.6857 N   0  0  0  0  0  0  0  0  0  0  0  0
   -6.8907    4.1236   12.6936 N   0  0  0  0  0  0  0  0  0  0  0  0
  -14.8758    6.3145   14.4484 O   0  0  0  0  0  0  0  0  0  0  0  0
  -17.0173    2.8344   16.7342 O   0  0  0  0  0  0  0  0  0  0  0  0
  -19.1585    3.3695   14.2173 O   0  0  0  0  0  0  0  0  0  0  0  0
   -7.8688    2.1911   16.6747 O   0  0  0  0  0  0  0  0  0  0  0  0
  -14.6329    7.3302   16.8032 O   0  0  0  0  0  0  0  0  0  0  0  0
  -14.7546    3.0188   15.4761 O   0  0  0  0  0  0  0  0  0  0  0  0
  -17.1054    1.7869   13.8731 O   0  0  0  0  0  0  0  0  0  0  0  0
  -12.3219    2.4198   18.8753 O   0  0  0  0  0  0  0  0  0  0  0  0
  -15.6640    5.0488   16.5972 O   0  0  0  0  0  0  0  0  0  0  0  0
  -16.7470    4.1800   14.5019 O   0  0  0  0  0  0  0  0  0  0  0  0
  -17.5246    3.5706   12.1872 O   0  0  0  0  0  0  0  0  0  0  0  0
  -10.4712    4.5760   17.7784 O   0  0  0  0  0  0  0  0  0  0  0  0
  -13.1810    5.3844   16.1993 O   0  0  0  0  0  0  0  0  0  0  0  0
  -14.6249    6.0132   15.8872 P   0  0  1  0  0  5  0  0  0  0  0  0
  -16.1426    3.7005   15.8956 P   0  0  0  0  0  5  0  0  0  0  0  0
  -17.7566    3.2340   13.7248 P   0  0  0  0  0  5  0  0  0  0  0  0
  1  3  1  0
  3  4  1  0
  4  6  1  0
  5  7  4  0
  6  8  1  6
  7  9  4  0
  3 10  1  1
  9 11  4  0
  2 11  4  0
  1 11  1  6
  5 12  4  0
  2 12  4  0
  5 13  1  0
  2 17  2  0
  4 21  1  1
  1 25  1  0
  6 25  1  0
  8 26  1  0
 14 27  2  0
 22 27  1  0
 26 27  1  0
 27 18  1  1
 23 28  1  0
 15 28  2  0
 28 19  1  0
 22 28  1  0
 16 29  2  0
 24 29  1  0
 23 29  1  0
 20 29  1  0
M  END
