8AUH_L9I_B_403
     RDKit          3D

 20 19  0  0  0  0  0  0  0  0999 V2000
   11.3089   17.0244  -19.5055 N   0  0  0  0  0  0  0  0  0  0  0  0
    9.8553   18.6646  -20.4732 C   0  0  0  0  0  0  0  0  0  0  0  0
   10.2826   19.0540  -21.5937 O   0  0  0  0  0  0  0  0  0  0  0  0
    9.0903   16.2479  -20.1484 C   0  0  0  0  0  0  0  0  0  0  0  0
    7.0723   17.5476  -19.4888 C   0  0  1  0  0  0  0  0  0  0  0  0
    7.1267   17.0767  -18.0402 C   0  0  2  0  0  0  0  0  0  0  0  0
    9.0860   19.6245  -19.6176 C   0  0  2  0  0  0  0  0  0  0  0  0
   10.1349   17.2870  -20.0086 C   0  0  0  0  0  0  0  0  0  0  0  0
    7.7580   16.6328  -20.3416 O   0  0  0  0  0  0  0  0  0  0  0  0
   11.6861   15.8183  -18.9475 O   0  0  0  0  0  0  0  0  0  0  0  0
    9.4058   15.0265  -20.1464 O   0  0  0  0  0  0  0  0  0  0  0  0
    6.0168   17.6670  -19.8171 H   0  0  0  0  0  0  0  0  0  0  0  0
    7.5692   18.5379  -19.5608 H   0  0  0  0  0  0  0  0  0  0  0  0
    6.1771   17.3375  -17.5270 H   0  0  0  0  0  0  0  0  0  0  0  0
    7.9690   17.5719  -17.5125 H   0  0  0  0  0  0  0  0  0  0  0  0
    7.2653   15.9764  -17.9951 H   0  0  0  0  0  0  0  0  0  0  0  0
    7.9932   19.4619  -19.7334 H   0  0  0  0  0  0  0  0  0  0  0  0
    9.3255   20.6665  -19.9166 H   0  0  0  0  0  0  0  0  0  0  0  0
    9.3548   19.4766  -18.5505 H   0  0  0  0  0  0  0  0  0  0  0  0
   11.0703   15.0169  -18.9054 H   0  0  0  0  0  0  0  0  0  0  0  0
  2  3  2  0
  5  6  1  0
  2  7  1  0
  1  8  2  0
  4  8  1  0
  2  8  1  0
  4  9  1  0
  5  9  1  0
  1 10  1  0
  4 11  2  0
  5 12  1  6
  5 13  1  0
  6 14  1  1
  6 15  1  0
  6 16  1  0
  7 17  1  1
  7 18  1  0
  7 19  1  0
 10 20  1  0
M  END
