6XG5_TOP_A_303
     RDKit          3D

 21 22  0  0  0  0  0  0  0  0999 V2000
   -8.2920   26.8250   18.9160 C   0  0  0  0  0  0  0  0  0  0  0  0
   -8.3520   26.3000   20.1530 N   0  0  0  0  0  0  0  0  0  0  0  0
   -8.9430   25.0910   20.2870 C   0  0  0  0  0  0  0  0  0  0  0  0
   -9.0110   24.5550   21.5070 N   0  0  0  0  0  0  0  0  0  0  0  0
   -9.4840   24.3950   19.2740 N   0  0  0  0  0  0  0  0  0  0  0  0
   -9.3840   24.9180   18.0340 C   0  0  0  0  0  0  0  0  0  0  0  0
   -9.9030   24.1780   17.0310 N   0  0  0  0  0  0  0  0  0  0  0  0
   -8.7870   26.1880   17.7880 C   0  0  0  0  0  0  0  0  0  0  0  0
   -8.6340   26.7560   16.3730 C   0  0  0  0  0  0  0  0  0  0  0  0
   -8.1170   28.1750   16.2390 C   0  0  0  0  0  0  0  0  0  0  0  0
   -6.7620   28.4720   16.3700 C   0  0  0  0  0  0  0  0  0  0  0  0
   -6.3050   29.7860   16.3060 C   0  0  0  0  0  0  0  0  0  0  0  0
   -5.0060   30.1780   16.4880 O   0  0  0  0  0  0  0  0  0  0  0  0
   -4.0050   29.1610   16.5120 C   0  0  0  0  0  0  0  0  0  0  0  0
   -7.2040   30.8330   16.0840 C   0  0  0  0  0  0  0  0  0  0  0  0
   -6.7730   32.1400   15.9510 O   0  0  0  0  0  0  0  0  0  0  0  0
   -6.4700   32.8200   17.1580 C   0  0  0  0  0  0  0  0  0  0  0  0
   -8.5500   30.5260   15.8890 C   0  0  0  0  0  0  0  0  0  0  0  0
   -9.3460   31.6100   15.6690 O   0  0  0  0  0  0  0  0  0  0  0  0
  -10.6340   31.3850   15.0990 C   0  0  0  0  0  0  0  0  0  0  0  0
   -8.9990   29.2110   15.9630 C   0  0  0  0  0  0  0  0  0  0  0  0
  1  2  2  0
  2  3  1  0
  3  4  1  0
  3  5  2  0
  5  6  1  0
  6  7  1  0
  1  8  1  0
  6  8  2  0
  8  9  1  0
  9 10  1  0
 10 11  2  0
 11 12  1  0
 12 13  1  0
 13 14  1  0
 12 15  2  0
 15 16  1  0
 16 17  1  0
 15 18  1  0
 18 19  1  0
 19 20  1  0
 10 21  1  0
 18 21  2  0
M  END
$$$$
