
     RDKit          3D

 38 43  0  0  0  0  0  0  0  0999 V2000
  -10.9044  -23.1672   30.6353 N   0  0  0  0  0  0  0  0  0  0  0  0
   -9.2911  -13.3598   30.0496 N   0  0  0  0  0  0  0  0  0  0  0  0
   -9.4436  -25.1207   30.6182 C   0  0  0  0  0  0  0  0  0  0  0  0
   -9.6437  -23.7467   30.7447 C   0  0  0  0  0  0  0  0  0  0  0  0
   -8.5388  -22.9094   30.9877 C   0  0  0  0  0  0  0  0  0  0  0  0
  -11.0720  -21.7865   30.7454 C   0  0  0  0  0  0  0  0  0  0  0  0
   -9.9386  -21.0010   30.9787 C   0  0  0  0  0  0  0  0  0  0  0  0
  -11.3745  -19.0650   30.9353 C   0  0  0  0  0  0  0  0  0  0  0  0
   -8.9538  -17.0629   29.5831 C   0  0  0  0  0  0  0  0  0  0  0  0
   -9.2433  -14.7484   30.2821 C   0  0  0  0  0  0  0  0  0  0  0  0
   -9.3489  -16.5479   31.8970 C   0  0  0  0  0  0  0  0  0  0  0  0
  -10.6612  -10.0176   29.5231 C   0  0  0  0  0  0  0  0  0  0  0  0
  -10.5384  -11.7560   27.6004 C   0  0  0  0  0  0  0  0  0  0  0  0
   -9.2154  -10.3618   29.3460 C   0  0  0  0  0  0  0  0  0  0  0  0
  -11.6000  -11.5097   24.7882 C   0  0  0  0  0  0  0  0  0  0  0  0
  -11.0028  -10.7048   22.6000 C   0  0  0  0  0  0  0  0  0  0  0  0
   -9.9307   -9.7798   24.5524 C   0  0  0  0  0  0  0  0  0  0  0  0
   -7.2528  -23.4394   31.1090 C   0  0  0  0  0  0  0  0  0  0  0  0
  -10.1037  -19.6213   31.0510 C   0  0  0  0  0  0  0  0  0  0  0  0
   -9.1245  -17.4960   30.9003 C   0  0  0  0  0  0  0  0  0  0  0  0
   -9.0177  -15.6967   29.2780 C   0  0  0  0  0  0  0  0  0  0  0  0
   -9.4223  -15.1869   31.5989 C   0  0  0  0  0  0  0  0  0  0  0  0
  -10.4150  -12.5633   29.9935 C   0  0  0  0  0  0  0  0  0  0  0  0
  -10.2794  -11.4175   29.0366 C   0  0  0  0  0  0  0  0  0  0  0  0
   -7.0621  -24.8159   30.9831 C   0  0  0  0  0  0  0  0  0  0  0  0
  -10.6829  -10.6257   25.3755 C   0  0  0  0  0  0  0  0  0  0  0  0
  -11.7600  -11.5501   23.4005 C   0  0  0  0  0  0  0  0  0  0  0  0
  -10.0912   -9.8214   23.1629 C   0  0  0  0  0  0  0  0  0  0  0  0
   -8.1542  -25.6532   30.7362 C   0  0  0  0  0  0  0  0  0  0  0  0
  -12.4359  -19.9266   30.7160 C   0  0  0  0  0  0  0  0  0  0  0  0
   -9.4975  -16.9334   33.1749 F   0  0  0  0  0  0  0  0  0  0  0  0
  -11.1515  -10.7454   21.2679 F   0  0  0  0  0  0  0  0  0  0  0  0
  -12.3133  -21.2710   30.6114 N   0  0  0  0  0  0  0  0  0  0  0  0
  -10.5826  -10.6495   26.7797 N   0  0  0  0  0  0  0  0  0  0  0  0
   -8.6715  -21.5361   31.1150 O   0  0  0  0  0  0  0  0  0  0  0  0
   -9.0235  -18.8099   31.3020 O   0  0  0  0  0  0  0  0  0  0  0  0
  -11.4739  -12.7116   30.5863 O   0  0  0  0  0  0  0  0  0  0  0  0
  -10.7180  -12.9290   27.3043 O   0  0  0  0  0  0  0  0  0  0  0  0
  3  4  4  0
  1  4  1  0
  4  5  4  0
  1  6  1  0
  6  7  4  0
  2 10  1  0
 12 14  1  0
  5 18  4  0
  8 19  4  0
  7 19  4  0
  9 20  4  0
 11 20  4  0
  9 21  4  0
 10 21  4  0
 10 22  4  0
 11 22  4  0
  2 23  1  0
 13 24  1  0
 12 24  1  0
 14 24  1  0
 23 24  1  0
 18 25  4  0
 17 26  4  0
 15 26  4  0
 16 27  4  0
 15 27  4  0
 16 28  4  0
 17 28  4  0
 25 29  4  0
  3 29  4  0
  8 30  4  0
 11 31  1  0
 16 32  1  0
  6 33  4  0
 30 33  4  0
 26 34  1  0
 13 34  1  0
  5 35  1  0
  7 35  1  0
 20 36  1  0
 19 36  1  0
 23 37  2  0
 13 38  2  0
M  END
