
     RDKit          3D

 34 36  0  0  0  0  0  0  0  0999 V2000
   11.4324   -8.8517    2.1370 C   0  0  0  0  0  0  0  0  0  0  0  0
   14.9667   -9.4784   -2.4160 C   0  0  0  0  0  0  0  0  0  0  0  0
   20.4654   -5.6753   -0.7668 O   0  0  0  0  0  0  0  0  0  0  0  0
   19.4898   -6.6181   -0.3166 C   0  0  0  0  0  0  0  0  0  0  0  0
   21.8238   -9.6177   -1.1590 C   0  0  0  0  0  0  0  0  0  0  0  0
   17.5928   -8.1597   -1.1478 C   0  0  2  0  0  0  0  0  0  0  0  0
   17.3044   -9.0612   -2.3513 C   0  0  1  0  0  0  0  0  0  0  0  0
   19.8750   -9.1422   -2.4110 C   0  0  1  0  0  0  0  0  0  0  0  0
   18.5565   -9.8799   -2.7425 C   0  0  1  0  0  0  0  0  0  0  0  0
   18.7402   -7.1955   -1.5210 C   0  0  2  0  0  0  0  0  0  0  0  0
   19.6965   -7.7244   -2.4695 O   0  0  0  0  0  0  0  0  0  0  0  0
   20.4070   -9.5361   -1.1507 O   0  0  0  0  0  0  0  0  0  0  0  0
   18.4875  -11.1944   -2.1455 O   0  0  0  0  0  0  0  0  0  0  0  0
   18.4529  -11.2352   -0.7997 C   0  0  0  0  0  0  0  0  0  0  0  0
   16.1848   -9.9216   -2.0299 O   0  0  0  0  0  0  0  0  0  0  0  0
   17.8777   -8.9754   -0.0093 O   0  0  0  0  0  0  0  0  0  0  0  0
   14.5851   -9.3628   -3.5691 O   0  0  0  0  0  0  0  0  0  0  0  0
   18.9618  -10.4547   -0.0182 O   0  0  0  0  0  0  0  0  0  0  0  0
   17.8727  -12.5391   -0.4352 C   0  0  0  0  0  0  0  0  0  0  0  0
   14.0995   -9.2524   -1.2292 C   0  0  0  0  0  0  0  0  0  0  0  0
   12.7157   -9.1752   -1.4249 C   0  0  0  0  0  0  0  0  0  0  0  0
   14.6137   -9.1981    0.0732 C   0  0  0  0  0  0  0  0  0  0  0  0
   11.8567   -9.0402   -0.3313 C   0  0  0  0  0  0  0  0  0  0  0  0
   13.7516   -9.0643    1.1652 C   0  0  0  0  0  0  0  0  0  0  0  0
   12.3682   -8.9851    0.9712 C   0  0  0  0  0  0  0  0  0  0  0  0
   16.8030  -13.0022   -1.2133 C   0  0  0  0  0  0  0  0  0  0  0  0
   18.2615  -13.2699    0.6904 C   0  0  0  0  0  0  0  0  0  0  0  0
   16.1223  -14.1658   -0.8432 C   0  0  0  0  0  0  0  0  0  0  0  0
   17.5851  -14.4360    1.0706 C   0  0  0  0  0  0  0  0  0  0  0  0
   19.4229  -12.8771    1.4640 N   0  0  0  0  0  4  0  0  0  0  0  0
   16.5094  -14.8694    0.2998 C   0  0  0  0  0  0  0  0  0  0  0  0
   15.6540  -16.2899    0.7555 Cl  0  0  0  0  0  0  0  0  0  0  0  0
   19.2183  -12.4867    2.6202 O   0  0  0  0  0  0  0  0  0  0  0  0
   20.5149  -12.8843    0.8799 O   0  0  0  0  0  1  0  0  0  0  0  0
  3  4  1  0
  6  7  1  0
  8  9  1  0
  7  9  1  0
  6 10  1  0
 10  4  1  1
  8 11  1  0
 10 11  1  0
  5 12  1  0
  8 12  1  1
  9 13  1  1
 13 14  1  0
  2 15  1  0
  7 15  1  1
  6 16  1  1
  2 17  2  0
 14 18  2  0
 14 19  1  0
  2 20  1  0
 20 21  4  0
 20 22  4  0
 21 23  4  0
 22 24  4  0
 23 25  4  0
  1 25  1  0
 24 25  4  0
 19 26  4  0
 19 27  4  0
 26 28  4  0
 27 29  4  0
 27 30  1  0
 28 31  4  0
 29 31  4  0
 31 32  1  0
 30 33  2  0
 30 34  1  0
M  CHG  2  30   1  34  -1
M  END
