1KE5_LS1_A_299
     RDKit          3D

 38 40  0  0  0  0  0  0  0  0999 V2000
   -6.9682   49.3814   42.6214 N   0  0  0  0  0  0  0  0  0  0  0  0
   -7.5784   48.5500   41.7395 C   0  0  0  0  0  0  0  0  0  0  0  0
   -8.4910   49.3601   40.8655 C   0  0  0  0  0  0  0  0  0  0  0  0
   -8.9239   52.0034   40.8290 C   0  0  0  0  0  0  0  0  0  0  0  0
   -8.5190   53.2681   41.5028 C   0  0  0  0  0  0  0  0  0  0  0  0
   -7.5502   53.2263   42.6255 C   0  0  0  0  0  0  0  0  0  0  0  0
   -6.9381   51.9312   43.0490 C   0  0  0  0  0  0  0  0  0  0  0  0
   -7.3575   50.6805   42.3885 C   0  0  0  0  0  0  0  0  0  0  0  0
   -8.3217   50.7176   41.3023 C   0  0  0  0  0  0  0  0  0  0  0  0
   -7.3990   47.3326   41.5985 O   0  0  0  0  0  0  0  0  0  0  0  0
   -9.2341   48.9035   39.8513 C   0  0  0  0  0  0  0  0  0  0  0  0
   -9.1742   47.5199   39.3550 N   0  0  0  0  0  0  0  0  0  0  0  0
   -9.4975   47.1212   38.1066 C   0  0  0  0  0  0  0  0  0  0  0  0
  -10.3456   47.9071   37.1450 C   0  0  0  0  0  0  0  0  0  0  0  0
  -10.6365   47.3754   35.8315 C   0  0  0  0  0  0  0  0  0  0  0  0
  -10.1058   46.0628   35.4468 C   0  0  0  0  0  0  0  0  0  0  0  0
   -9.2427   45.2800   36.3698 C   0  0  0  0  0  0  0  0  0  0  0  0
   -8.9418   45.8106   37.7058 C   0  0  0  0  0  0  0  0  0  0  0  0
  -10.2786   45.5772   33.7695 S   0  0  1  0  0  6  0  0  0  0  0  0
  -11.6654   45.6483   33.4499 O   0  0  0  0  0  0  0  0  0  0  0  0
   -9.3762   46.3590   32.9781 O   0  0  0  0  0  0  0  0  0  0  0  0
   -9.7365   44.0299   33.5830 N   0  0  0  0  0  0  0  0  0  0  0  0
   -8.5637   43.3924   34.1642 C   0  0  0  0  0  0  0  0  0  0  0  0
   -6.3399   49.0972   43.3239 H   0  0  0  0  0  0  0  0  0  0  0  0
   -9.6044   52.0133   40.0532 H   0  0  0  0  0  0  0  0  0  0  0  0
   -8.9108   54.1702   41.1900 H   0  0  0  0  0  0  0  0  0  0  0  0
   -7.2976   54.0977   43.1172 H   0  0  0  0  0  0  0  0  0  0  0  0
   -6.2277   51.9115   43.7974 H   0  0  0  0  0  0  0  0  0  0  0  0
   -9.8857   49.5584   39.3913 H   0  0  0  0  0  0  0  0  0  0  0  0
   -8.8733   46.8269   39.9862 H   0  0  0  0  0  0  0  0  0  0  0  0
  -10.7207   48.8275   37.4226 H   0  0  0  0  0  0  0  0  0  0  0  0
  -11.2139   47.9162   35.1689 H   0  0  0  0  0  0  0  0  0  0  0  0
   -8.8575   44.3696   36.0736 H   0  0  0  0  0  0  0  0  0  0  0  0
   -8.3487   45.2743   38.3582 H   0  0  0  0  0  0  0  0  0  0  0  0
  -10.5177   43.4493   33.8882 H   0  0  0  0  0  0  0  0  0  0  0  0
   -7.6871   43.9421   33.8918 H   0  0  0  0  0  0  0  0  0  0  0  0
   -8.6578   43.3763   35.2299 H   0  0  0  0  0  0  0  0  0  0  0  0
   -8.4842   42.3901   33.7979 H   0  0  0  0  0  0  0  0  0  0  0  0
  1  2  1  0
  2  3  1  0
  4  5  1  0
  5  6  2  0
  6  7  1  0
  1  8  1  0
  7  8  2  0
  3  9  1  0
  4  9  2  0
  8  9  1  0
  2 10  2  0
  3 11  2  3
 11 12  1  0
 12 13  1  0
 13 14  2  0
 14 15  1  0
 15 16  2  0
 16 17  1  0
 13 18  1  0
 17 18  2  0
 16 19  1  0
 19 20  2  0
 19 21  2  0
 19 22  1  6
 22 23  1  0
  1 24  1  0
  4 25  1  0
  5 26  1  0
  6 27  1  0
  7 28  1  0
 11 29  1  0
 12 30  1  0
 14 31  1  0
 15 32  1  0
 17 33  1  0
 18 34  1  0
 22 35  1  0
 23 36  1  0
 23 37  1  0
 23 38  1  0
M  END
