1S3V_TQD_A_187
     RDKit          3D

 27 29  0  0  0  0  0  0  0  0999 V2000
    0.5909   31.7605    0.3005 C   0  0  2  0  0  0  0  0  0  0  0  0
   -1.0154   30.0202    0.7234 C   0  0  0  0  0  0  0  0  0  0  0  0
   -1.5864   30.7400    1.8563 C   0  0  0  0  0  0  0  0  0  0  0  0
   -2.7322   30.1094    2.6144 C   0  0  0  0  0  0  0  0  0  0  0  0
   -2.6040   30.6419    3.9983 C   0  0  1  0  0  0  0  0  0  0  0  0
   -2.8173   32.1419    3.9266 C   0  0  0  0  0  0  0  0  0  0  0  0
   -1.5749   32.7459    3.3139 C   0  0  0  0  0  0  0  0  0  0  0  0
   -1.0879   31.9140    2.1878 C   0  0  0  0  0  0  0  0  0  0  0  0
   -3.3930   29.9727    5.0624 C   0  0  0  0  0  0  0  0  0  0  0  0
   -4.3281   27.6645    4.6144 C   0  0  0  0  0  0  0  0  0  0  0  0
   -5.4240   26.8723    4.3007 C   0  0  0  0  0  0  0  0  0  0  0  0
   -5.3589   25.4927    4.2591 C   0  0  0  0  0  0  0  0  0  0  0  0
   -7.7382   25.1458    3.6549 C   0  0  0  0  0  0  0  0  0  0  0  0
   -4.1582   24.8744    4.5396 C   0  0  0  0  0  0  0  0  0  0  0  0
   -4.3334   22.6868    3.4103 C   0  0  0  0  0  0  0  0  0  0  0  0
   -3.0449   25.6201    4.8554 C   0  0  0  0  0  0  0  0  0  0  0  0
   -0.6524   25.6643    5.4136 C   0  0  0  0  0  0  0  0  0  0  0  0
   -3.1547   27.0092    4.8862 C   0  0  0  0  0  0  0  0  0  0  0  0
   -0.0111   32.4373    1.4189 N   0  0  0  0  0  0  0  0  0  0  0  0
    0.4313   32.5856   -0.8720 N   0  0  0  0  0  0  0  0  0  0  0  0
   -0.0359   30.4829    0.0254 N   0  0  0  0  0  0  0  0  0  0  0  0
   -1.5302   28.7405    0.3259 N   0  0  0  0  0  0  0  0  0  0  0  0
   -4.4384   29.1034    4.6610 N   0  0  0  0  0  0  0  0  0  0  0  0
   -6.4494   24.6949    3.9461 O   0  0  0  0  0  0  0  0  0  0  0  0
   -4.0228   23.4970    4.5163 O   0  0  0  0  0  0  0  0  0  0  0  0
   -1.8440   24.9718    5.1346 O   0  0  0  0  0  0  0  0  0  0  0  0
   -5.7240   29.6627    4.2803 C   0  0  0  0  0  0  0  0  0  0  0  0
  2  3  1  0
  3  4  1  0
  4  5  1  0
  5  6  1  0
  6  7  1  0
  3  8  2  0
  7  8  1  0
  5  9  1  1
 10 11  2  0
 11 12  1  0
 12 14  2  0
 14 16  1  0
 10 18  1  0
 16 18  2  0
  1 19  1  0
  8 19  1  0
  1 20  1  6
  1 21  1  0
  2 21  2  0
  2 22  1  0
  9 23  1  0
 10 23  1  0
 12 24  1  0
 13 24  1  0
 14 25  1  0
 15 25  1  0
 16 26  1  0
 17 26  1  0
 23 27  1  0
M  END
$$$$
