1S3V_TQD_A_187
     RDKit          3D

 27 29  0  0  0  0  0  0  0  0999 V2000
    0.8211   31.8027    0.5096 C   0  0  2  0  0  0  0  0  0  0  0  0
   -1.0333   30.2702    0.5034 C   0  0  0  0  0  0  0  0  0  0  0  0
   -1.7013   30.9804    1.5883 C   0  0  0  0  0  0  0  0  0  0  0  0
   -3.0295   30.4594    2.0878 C   0  0  0  0  0  0  0  0  0  0  0  0
   -3.0808   30.8728    3.5166 C   0  0  1  0  0  0  0  0  0  0  0  0
   -3.0948   32.3892    3.5479 C   0  0  0  0  0  0  0  0  0  0  0  0
   -1.7007   32.8609    3.2045 C   0  0  0  0  0  0  0  0  0  0  0  0
   -1.1296   32.0506    2.1024 C   0  0  0  0  0  0  0  0  0  0  0  0
   -4.1183   30.2444    4.3717 C   0  0  0  0  0  0  0  0  0  0  0  0
   -3.5791   27.8943    5.1396 C   0  0  0  0  0  0  0  0  0  0  0  0
   -2.3793   27.2295    5.3524 C   0  0  0  0  0  0  0  0  0  0  0  0
   -2.2326   25.8713    5.1441 C   0  0  0  0  0  0  0  0  0  0  0  0
    0.1176   25.7419    5.9226 C   0  0  0  0  0  0  0  0  0  0  0  0
   -3.3201   25.1437    4.7076 C   0  0  0  0  0  0  0  0  0  0  0  0
   -3.5010   22.7965    5.4489 C   0  0  0  0  0  0  0  0  0  0  0  0
   -4.5301   25.7613    4.4837 C   0  0  0  0  0  0  0  0  0  0  0  0
   -6.9034   25.5411    3.8870 C   0  0  0  0  0  0  0  0  0  0  0  0
   -4.6341   27.1333    4.7062 C   0  0  0  0  0  0  0  0  0  0  0  0
    0.1202   32.4756    1.5712 N   0  0  0  0  0  0  0  0  0  0  0  0
    0.9696   32.7208   -0.5931 N   0  0  0  0  0  0  0  0  0  0  0  0
    0.1016   30.6435    0.0203 N   0  0  0  0  0  0  0  0  0  0  0  0
   -1.6223   29.1023   -0.0879 N   0  0  0  0  0  0  0  0  0  0  0  0
   -3.6902   29.3176    5.3554 N   0  0  0  0  0  0  0  0  0  0  0  0
   -1.0372   25.2004    5.3550 O   0  0  0  0  0  0  0  0  0  0  0  0
   -3.2430   23.7808    4.4788 O   0  0  0  0  0  0  0  0  0  0  0  0
   -5.6132   25.0043    4.0432 O   0  0  0  0  0  0  0  0  0  0  0  0
   -3.3155   29.7995    6.6737 C   0  0  0  0  0  0  0  0  0  0  0  0
  2  3  1  0
  3  4  1  0
  4  5  1  0
  5  6  1  0
  6  7  1  0
  3  8  2  0
  7  8  1  0
  5  9  1  6
 10 11  2  0
 11 12  1  0
 12 14  2  0
 14 16  1  0
 10 18  1  0
 16 18  2  0
  1 19  1  0
  8 19  1  0
  1 20  1  6
  1 21  1  0
  2 21  2  0
  2 22  1  0
  9 23  1  0
 10 23  1  0
 12 24  1  0
 13 24  1  0
 14 25  1  0
 15 25  1  0
 16 26  1  0
 17 26  1  0
 23 27  1  0
M  END
$$$$
