7C0U_FGO_B_506
     RDKit          3D

 71 76  0  0  0  0  0  0  0  0999 V2000
   21.4193    2.4428   29.0853 C   0  0  1  0  0  0  0  0  0  0  0  0
   23.3596    2.2350   27.9528 C   0  0  1  0  0  0  0  0  0  0  0  0
   25.5465    3.4627   27.9236 C   0  0  0  0  0  0  0  0  0  0  0  0
   26.8620    3.1538   27.9225 C   0  0  0  0  0  0  0  0  0  0  0  0
   25.7562    1.3679   28.1735 C   0  0  0  0  0  0  0  0  0  0  0  0
   27.8073    4.1390   27.6671 C   0  0  0  0  0  0  0  0  0  0  0  0
   26.0172    5.6986   27.4203 C   0  0  0  0  0  0  0  0  0  0  0  0
   22.8502    0.7964   28.0732 C   0  0  1  0  0  0  0  0  0  0  0  0
   21.4372    0.9961   28.5539 C   0  0  2  0  0  0  0  0  0  0  0  0
   22.7858    0.0305   26.7403 C   0  0  1  0  0  0  0  0  0  0  0  0
   21.3317    2.1913   33.2560 O   0  0  0  0  0  0  0  0  0  0  0  0
   21.9760    3.4312   32.6823 P   0  0  1  0  0  5  0  0  0  0  0  0
   21.5857    4.7371   33.6882 O   0  0  0  0  0  0  0  0  0  0  0  0
   23.6693    3.1885   32.6140 O   0  0  0  0  0  0  0  0  0  0  0  0
   24.2744    4.1767   31.7984 C   0  0  2  0  0  0  0  0  0  0  0  0
   25.1202    3.5233   30.6885 C   0  0  1  0  0  0  0  0  0  0  0  0
   24.9588    4.2601   29.3500 C   0  0  1  0  0  0  0  0  0  0  0  0
   24.0592    3.5719   28.5177 O   0  0  0  0  0  0  0  0  0  0  0  0
   26.4858    3.5353   31.0625 O   0  0  0  0  0  0  0  0  0  0  0  0
   26.5609    4.0725   32.3616 C   0  0  1  0  0  0  0  0  0  0  0  0
   27.7907    4.8746   32.5189 N   0  0  0  0  0  0  0  0  0  0  0  0
   28.9489    4.4516   31.9240 C   0  0  0  0  0  0  0  0  0  0  0  0
   30.1156    5.1988   32.0364 C   0  0  0  0  0  0  0  0  0  0  0  0
   30.0826    6.3831   32.7644 C   0  0  0  0  0  0  0  0  0  0  0  0
   31.1286    7.0685   32.8949 O   0  0  0  0  0  0  0  0  0  0  0  0
   28.9211    6.7947   33.3353 N   0  0  0  0  0  0  0  0  0  0  0  0
   27.7806    6.0593   33.2183 C   0  0  0  0  0  0  0  0  0  0  0  0
   26.7202    6.4802   33.7609 O   0  0  0  0  0  0  0  0  0  0  0  0
   25.3188    4.9185   32.5926 C   0  0  2  0  0  0  0  0  0  0  0  0
   24.9832    4.9939   33.9539 O   0  0  0  0  0  0  0  0  0  0  0  0
   21.3619    3.7209   31.1158 O   0  0  0  0  0  0  0  0  0  0  0  0
   20.9866    2.4849   30.5517 C   0  0  2  0  0  0  0  0  0  0  0  0
   20.5411    0.7566   27.3385 C   0  0  1  0  0  0  0  0  0  0  0  0
   21.3010   -0.2556   26.4771 C   0  0  2  0  0  0  0  0  0  0  0  0
   20.9595   -1.5748   26.8468 O   0  0  0  0  0  0  0  0  0  0  0  0
   20.9943   -0.0505   25.1213 O   0  0  0  0  0  0  0  0  0  0  0  0
   22.7183    2.9793   28.9623 O   0  0  0  0  0  0  0  0  0  0  0  0
   24.8163    2.3505   28.0974 N   0  0  0  0  0  0  0  0  0  0  0  0
   27.0340    1.8286   28.0742 N   0  0  0  0  0  0  0  0  0  0  0  0
   25.0956    4.7112   27.6568 N   0  0  0  0  0  0  0  0  0  0  0  0
   25.5704    7.0273   27.1395 N   0  0  0  0  0  0  0  0  0  0  0  0
   27.3630    5.4096   27.4298 N   0  0  0  0  0  0  0  0  0  0  0  0
   29.0373    3.8694   27.6366 O   0  0  0  0  0  0  0  0  0  0  0  0
   20.7211    3.0849   28.5041 H   0  0  0  0  0  0  0  0  0  0  0  0
   23.0727    2.6696   26.9648 H   0  0  0  0  0  0  0  0  0  0  0  0
   25.5247    0.3130   28.2551 H   0  0  0  0  0  0  0  0  0  0  0  0
   23.4228    0.2329   28.8429 H   0  0  0  0  0  0  0  0  0  0  0  0
   21.1970    0.2429   29.3383 H   0  0  0  0  0  0  0  0  0  0  0  0
   23.2190    0.6285   25.9099 H   0  0  0  0  0  0  0  0  0  0  0  0
   23.3666   -0.9152   26.8055 H   0  0  0  0  0  0  0  0  0  0  0  0
   20.5978    4.7502   33.7160 H   0  0  0  0  0  0  0  0  0  0  0  0
   23.5516    4.9301   31.4101 H   0  0  0  0  0  0  0  0  0  0  0  0
   24.8201    2.4642   30.5333 H   0  0  0  0  0  0  0  0  0  0  0  0
   24.5698    5.2880   29.5275 H   0  0  0  0  0  0  0  0  0  0  0  0
   25.9516    4.3560   28.8499 H   0  0  0  0  0  0  0  0  0  0  0  0
   24.4842    2.6947   28.3158 H   0  0  0  0  0  0  0  0  0  0  0  0
   26.5525    3.2134   33.0724 H   0  0  0  0  0  0  0  0  0  0  0  0
   28.9763    3.5295   31.3540 H   0  0  0  0  0  0  0  0  0  0  0  0
   31.0318    4.8634   31.5651 H   0  0  0  0  0  0  0  0  0  0  0  0
   28.9045    7.6916   33.8724 H   0  0  0  0  0  0  0  0  0  0  0  0
   25.4468    5.9413   32.1642 H   0  0  0  0  0  0  0  0  0  0  0  0
   25.2164    5.9124   34.2531 H   0  0  0  0  0  0  0  0  0  0  0  0
   21.4665    1.6334   31.0844 H   0  0  0  0  0  0  0  0  0  0  0  0
   19.8816    2.3555   30.5951 H   0  0  0  0  0  0  0  0  0  0  0  0
   19.5417    0.3760   27.6501 H   0  0  0  0  0  0  0  0  0  0  0  0
   20.3959    1.6966   26.7559 H   0  0  0  0  0  0  0  0  0  0  0  0
   20.5328   -1.5482   27.7438 H   0  0  0  0  0  0  0  0  0  0  0  0
   21.4865   -0.7406   24.6107 H   0  0  0  0  0  0  0  0  0  0  0  0
   26.2446    7.7630   26.8477 H   0  0  0  0  0  0  0  0  0  0  0  0
   24.5558    7.2671   27.2062 H   0  0  0  0  0  0  0  0  0  0  0  0
   28.0564    6.1678   27.2227 H   0  0  0  0  0  0  0  0  0  0  0  0
  3  4  2  0
  4  6  1  0
  2  8  1  0
  8  9  1  0
  1  9  1  0
  8 10  1  0
 11 12  2  0
 12 13  1  1
 12 14  1  0
 15 14  1  0
 15 16  1  0
 16 17  1  0
 17 18  1  0
 16 19  1  0
 19 20  1  0
 20 21  1  0
 21 22  1  0
 22 23  2  0
 23 24  1  0
 24 25  2  0
 24 26  1  0
 26 27  1  0
 21 27  1  0
 27 28  2  0
 20 29  1  0
 15 29  1  0
 29 30  1  0
 12 31  1  0
  1 32  1  0
 31 32  1  0
  9 33  1  0
 10 34  1  0
 33 34  1  0
 34 35  1  1
 34 36  1  0
  2 37  1  0
  1 37  1  0
  2 38  1  0
  3 38  1  0
  5 38  1  0
  4 39  1  0
  5 39  2  0
  7 40  2  0
  3 40  1  0
  7 41  1  0
  7 42  1  0
  6 42  1  0
  6 43  2  0
  1 44  1  6
  2 45  1  6
  5 46  1  0
  8 47  1  1
  9 48  1  1
 10 49  1  6
 10 50  1  0
 13 51  1  0
 15 52  1  6
 16 53  1  6
 17 54  1  1
 17 55  1  0
 18 56  1  0
 20 57  1  1
 22 58  1  0
 23 59  1  0
 26 60  1  0
 29 61  1  6
 30 62  1  0
 32 63  1  1
 32 64  1  0
 33 65  1  1
 33 66  1  0
 35 67  1  0
 36 68  1  0
 41 69  1  0
 41 70  1  0
 42 71  1  0
M  END
