6ZR8_QOZ_A_302
     RDKit          3D

 33 36  0  0  0  0  0  0  0  0999 V2000
   -3.8928   -3.2251   15.8669 C   0  0  0  0  0  0  0  0  0  0  0  0
   -4.6000   -3.5627   17.0094 C   0  0  0  0  0  0  0  0  0  0  0  0
   -5.4614   -2.6377   17.5735 C   0  0  0  0  0  0  0  0  0  0  0  0
   -6.4201   -3.0513   18.9940 S   0  0  1  0  0  0  0  0  0  0  0  0
   -7.4385   -2.0494   19.0998 O   0  0  0  0  0  0  0  0  0  0  0  0
   -6.8348   -4.4130   18.8185 O   0  0  0  0  0  0  0  0  0  0  0  0
   -5.5983   -1.3711   17.0277 C   0  0  0  0  0  0  0  0  0  0  0  0
   -4.8702   -1.0317   15.9033 C   0  0  0  0  0  0  0  0  0  0  0  0
   -4.0150   -1.9566   15.3157 C   0  0  0  0  0  0  0  0  0  0  0  0
   -3.2920   -1.5874   14.1594 N   0  0  0  0  0  0  0  0  0  0  0  0
   -2.0805   -0.9928   14.0965 C   0  0  0  0  0  0  0  0  0  0  0  0
   -1.4965   -0.5139   15.0622 O   0  0  0  0  0  0  0  0  0  0  0  0
   -1.4623   -1.0415   12.7091 C   0  0  0  0  0  0  0  0  0  0  0  0
   -0.7318    0.1727   12.3441 N   0  0  0  0  0  0  0  0  0  0  0  0
   -0.4865    0.2239   10.9031 C   0  0  0  0  0  0  0  0  0  0  0  0
    0.3674    1.4214   10.5597 C   0  0  0  0  0  0  0  0  0  0  0  0
   -1.4716    1.3802   12.7138 C   0  0  0  0  0  0  0  0  0  0  0  0
   -0.6442    2.6085   12.4136 C   0  0  0  0  0  0  0  0  0  0  0  0
   -0.2597    2.6746   10.9968 N   0  0  0  0  0  0  0  0  0  0  0  0
    0.6499    3.8178   10.7608 C   0  0  2  0  0  0  0  0  0  0  0  0
   -0.0706    5.1437   10.9703 C   0  0  0  0  0  0  0  0  0  0  0  0
    0.5266    6.1962   11.6530 C   0  0  0  0  0  0  0  0  0  0  0  0
   -0.1600    7.3841   11.8494 C   0  0  0  0  0  0  0  0  0  0  0  0
   -1.4316    7.5460   11.3407 C   0  0  0  0  0  0  0  0  0  0  0  0
   -2.0226    6.5196   10.6351 C   0  0  0  0  0  0  0  0  0  0  0  0
   -1.3453    5.3248   10.4538 C   0  0  0  0  0  0  0  0  0  0  0  0
    1.2811    3.7328    9.3758 C   0  0  0  0  0  0  0  0  0  0  0  0
    2.6185    4.0557    9.1889 C   0  0  0  0  0  0  0  0  0  0  0  0
    3.1706    4.0489    7.9183 C   0  0  0  0  0  0  0  0  0  0  0  0
    2.3869    3.7491    6.8224 C   0  0  0  0  0  0  0  0  0  0  0  0
    1.0567    3.4273    6.9934 C   0  0  0  0  0  0  0  0  0  0  0  0
    0.5102    3.4097    8.2657 C   0  0  0  0  0  0  0  0  0  0  0  0
   -5.4706   -2.9570   20.2840 N   0  0  0  0  0  0  0  0  0  0  0  0
  1  2  2  0
  2  3  1  0
  3  4  1  0
  4  5  2  0
  4  6  2  0
  3  7  2  0
  7  8  1  0
  8  9  2  0
  1  9  1  0
  9 10  1  0
 10 11  1  0
 11 12  2  0
 11 13  1  0
 13 14  1  0
 14 15  1  0
 15 16  1  0
 14 17  1  0
 17 18  1  0
 16 19  1  0
 18 19  1  0
 20 19  1  6
 20 21  1  0
 21 22  2  0
 22 23  1  0
 23 24  2  0
 24 25  1  0
 21 26  1  0
 25 26  2  0
 20 27  1  0
 27 28  2  0
 28 29  1  0
 29 30  2  0
 30 31  1  0
 31 32  2  0
 27 32  1  0
  4 33  1  1
M  END
