1L2S_STC_B_2115
     RDKit          3D

 19 20  0  0  0  0  0  0  0  0999 V2000
   51.8347   12.4130   21.4323 N   0  0  0  0  0  0  0  0  0  0  0  0
   50.4929   12.0500   21.3359 C   0  0  0  0  0  0  0  0  0  0  0  0
   49.8211   11.0189   21.9057 C   0  0  0  0  0  0  0  0  0  0  0  0
   49.6861   12.9205   20.5560 C   0  0  0  0  0  0  0  0  0  0  0  0
   48.4428   10.8178   21.7439 C   0  0  0  0  0  0  0  0  0  0  0  0
   48.3493   12.7343   20.3934 C   0  0  0  0  0  0  0  0  0  0  0  0
   47.6902   11.6801   20.9809 C   0  0  0  0  0  0  0  0  0  0  0  0
   45.9815   11.3855   20.8118 Cl  0  0  0  0  0  0  0  0  0  0  0  0
   52.5439   13.9561   21.4977 S   0  0  1  0  0  0  0  0  0  0  0  0
   52.1641   14.8740   20.0209 C   0  0  0  0  0  0  0  0  0  0  0  0
   52.0755   14.7128   22.6890 O   0  0  0  0  0  0  0  0  0  0  0  0
   54.0347   13.7624   21.6025 O   0  0  0  0  0  0  0  0  0  0  0  0
   51.0143   15.6373   19.9722 C   0  0  0  0  0  0  0  0  0  0  0  0
   52.8777   14.8569   18.8878 C   0  0  0  0  0  0  0  0  0  0  0  0
   50.8879   16.3426   18.3900 S   0  0  0  0  0  0  0  0  0  0  0  0
   49.9979   15.8591   21.0211 C   0  0  0  0  0  0  0  0  0  0  0  0
   52.4442   15.5520   17.8360 C   0  0  0  0  0  0  0  0  0  0  0  0
   48.8896   16.6633   20.7595 O   0  0  0  0  0  0  0  0  0  0  0  0
   50.0690   15.3580   22.1611 O   0  0  0  0  0  0  0  0  0  0  0  0
  1  2  1  0
  2  3  2  0
  2  4  1  0
  3  5  1  0
  4  6  2  0
  5  7  2  0
  6  7  1  0
  7  8  1  0
  9  1  1  6
  9 10  1  0
  9 11  2  0
  9 12  2  0
 10 13  2  0
 10 14  1  0
 13 15  1  0
 13 16  1  0
 14 17  2  0
 15 17  1  0
 16 18  1  0
 16 19  2  0
M  END
$$$$
