1L2S_STC_B_2115
     RDKit          3D

 19 20  0  0  0  0  0  0  0  0999 V2000
   18.9335    8.0501   12.6144 N   0  0  0  0  0  0  0  0  0  0  0  0
   19.2465    9.3556   12.9876 C   0  0  0  0  0  0  0  0  0  0  0  0
   18.7821   10.1082   14.0157 C   0  0  0  0  0  0  0  0  0  0  0  0
   20.2435    9.9872   12.1976 C   0  0  0  0  0  0  0  0  0  0  0  0
   19.2402   11.4058   14.2855 C   0  0  0  0  0  0  0  0  0  0  0  0
   20.6945   11.2443   12.4512 C   0  0  0  0  0  0  0  0  0  0  0  0
   20.2072   11.9887   13.4997 C   0  0  0  0  0  0  0  0  0  0  0  0
   20.7418   13.6030   13.8777 Cl  0  0  0  0  0  0  0  0  0  0  0  0
   19.9596    6.7536   12.2213 S   0  0  1  0  0  0  0  0  0  0  0  0
   21.3756    6.7371   13.2995 C   0  0  0  0  0  0  0  0  0  0  0  0
   19.2442    5.4535   12.3185 O   0  0  0  0  0  0  0  0  0  0  0  0
   20.4113    6.9525   10.7975 O   0  0  0  0  0  0  0  0  0  0  0  0
   21.1989    6.5072   14.6496 C   0  0  0  0  0  0  0  0  0  0  0  0
   22.6381    6.9890   12.9312 C   0  0  0  0  0  0  0  0  0  0  0  0
   22.7429    6.6278   15.4358 S   0  0  0  0  0  0  0  0  0  0  0  0
   19.9534    6.2219   15.3912 C   0  0  0  0  0  0  0  0  0  0  0  0
   23.5963    6.9979   13.8581 C   0  0  0  0  0  0  0  0  0  0  0  0
   19.9846    6.0763   16.7774 O   0  0  0  0  0  0  0  0  0  0  0  0
   18.8409    6.0989   14.8407 O   0  0  0  0  0  0  0  0  0  0  0  0
  1  2  1  0
  2  3  2  0
  2  4  1  0
  3  5  1  0
  4  6  2  0
  5  7  2  0
  6  7  1  0
  7  8  1  0
  9  1  1  1
  9 10  1  0
  9 11  2  0
  9 12  2  0
 10 13  2  0
 10 14  1  0
 13 15  1  0
 13 16  1  0
 14 17  2  0
 15 17  1  0
 16 18  1  0
 16 19  2  0
M  END
$$$$
