1L2S_STC_B_2115
     RDKit          3D

 19 20  0  0  0  0  0  0  0  0999 V2000
   49.2963   -0.9064   22.5478 N   0  0  0  0  0  0  0  0  0  0  0  0
   49.5778    0.2659   21.8493 C   0  0  0  0  0  0  0  0  0  0  0  0
   50.6081    0.5658   21.0200 C   0  0  0  0  0  0  0  0  0  0  0  0
   48.6120    1.2980   21.9872 C   0  0  0  0  0  0  0  0  0  0  0  0
   50.7218    1.7919   20.3492 C   0  0  0  0  0  0  0  0  0  0  0  0
   48.7130    2.4897   21.3409 C   0  0  0  0  0  0  0  0  0  0  0  0
   49.7682    2.7710   20.5053 C   0  0  0  0  0  0  0  0  0  0  0  0
   49.9565    4.2766   19.6493 Cl  0  0  0  0  0  0  0  0  0  0  0  0
   49.8272   -2.4963   22.2665 S   0  0  1  0  0  0  0  0  0  0  0  0
   51.4461   -2.7400   22.9647 C   0  0  0  0  0  0  0  0  0  0  0  0
   48.8814   -3.4885   22.8431 O   0  0  0  0  0  0  0  0  0  0  0  0
   49.8860   -2.6940   20.7738 O   0  0  0  0  0  0  0  0  0  0  0  0
   52.4752   -1.8917   22.6065 C   0  0  0  0  0  0  0  0  0  0  0  0
   51.7965   -3.7335   23.7915 C   0  0  0  0  0  0  0  0  0  0  0  0
   53.9300   -2.4298   23.3881 S   0  0  0  0  0  0  0  0  0  0  0  0
   52.4469   -0.7199   21.7073 C   0  0  0  0  0  0  0  0  0  0  0  0
   53.0638   -3.8273   24.1946 C   0  0  0  0  0  0  0  0  0  0  0  0
   53.5747    0.0897   21.5807 O   0  0  0  0  0  0  0  0  0  0  0  0
   51.4484   -0.3977   21.0328 O   0  0  0  0  0  0  0  0  0  0  0  0
  1  2  1  0
  2  3  2  0
  2  4  1  0
  3  5  1  0
  4  6  2  0
  5  7  2  0
  6  7  1  0
  7  8  1  0
  9  1  1  6
  9 10  1  0
  9 11  2  0
  9 12  2  0
 10 13  2  0
 10 14  1  0
 13 15  1  0
 13 16  1  0
 14 17  2  0
 15 17  1  0
 16 18  1  0
 16 19  2  0
M  END
$$$$
