7SCW_GSP_A_202
     RDKit          3D

 32 34  0  0  0  0  0  0  0  0999 V2000
   25.6734   16.7939   -7.9811 P   0  0  1  0  0  0  0  0  0  0  0  0
   26.5477   17.7639   -6.9916 O   0  0  0  0  0  0  0  0  0  0  0  0
   25.0188   15.4400   -6.8324 S   0  0  0  0  0  0  0  0  0  0  0  0
   24.5227   17.4799   -8.6113 O   0  0  0  0  0  0  0  0  0  0  0  0
   26.4626   16.2506   -9.1618 O   0  0  0  0  0  0  0  0  0  0  0  0
   27.3797   19.0220   -7.4458 P   0  0  1  0  0  0  0  0  0  0  0  0
   28.7121   18.6093   -7.9006 O   0  0  0  0  0  0  0  0  0  0  0  0
   26.5791   19.8841   -8.3054 O   0  0  0  0  0  0  0  0  0  0  0  0
   27.1122   21.2272   -5.6065 P   0  0  1  0  0  0  0  0  0  0  0  0
   28.0218   22.2605   -6.1171 O   0  0  0  0  0  0  0  0  0  0  0  0
   25.7069   21.3922   -5.9560 O   0  0  0  0  0  0  0  0  0  0  0  0
   27.6165   19.7438   -6.0269 O   0  0  0  0  0  0  0  0  0  0  0  0
   27.4325   21.1488   -4.0515 O   0  0  0  0  0  0  0  0  0  0  0  0
   26.5341   20.5064   -3.1311 C   0  0  0  0  0  0  0  0  0  0  0  0
   26.3239   21.3222   -1.8695 C   0  0  1  0  0  0  0  0  0  0  0  0
   27.5635   21.6253   -1.2517 O   0  0  0  0  0  0  0  0  0  0  0  0
   25.6608   22.6600   -2.1497 C   0  0  1  0  0  0  0  0  0  0  0  0
   24.9639   23.0309   -1.0144 O   0  0  0  0  0  0  0  0  0  0  0  0
   26.8124   23.6397   -2.2489 C   0  0  1  0  0  0  0  0  0  0  0  0
   26.4333   24.9418   -1.8790 O   0  0  0  0  0  0  0  0  0  0  0  0
   27.7755   23.0440   -1.1896 C   0  0  2  0  0  0  0  0  0  0  0  0
   29.2006   23.2712   -1.4703 N   0  0  0  0  0  0  0  0  0  0  0  0
   29.8662   22.8751   -2.6122 C   0  0  0  0  0  0  0  0  0  0  0  0
   31.1717   23.2176   -2.5089 N   0  0  0  0  0  0  0  0  0  0  0  0
   31.3436   23.8867   -1.3357 C   0  0  0  0  0  0  0  0  0  0  0  0
   32.4667   24.4769   -0.7153 C   0  0  0  0  0  0  0  0  0  0  0  0
   33.6462   24.4736   -1.1723 O   0  0  0  0  0  0  0  0  0  0  0  0
   32.2453   25.0589    0.5087 N   0  0  0  0  0  0  0  0  0  0  0  0
   30.9786   25.0394    1.0981 C   0  0  0  0  0  0  0  0  0  0  0  0
   30.7870   25.5784    2.2663 N   0  0  0  0  0  0  0  0  0  0  0  0
   29.8924   24.4546    0.5321 N   0  0  0  0  0  0  0  0  0  0  0  0
   30.0982   23.8791   -0.6750 C   0  0  0  0  0  0  0  0  0  0  0  0
  1  2  1  0
  1  3  2  0
  1  4  1  6
  1  5  1  0
  2  6  1  0
  6  7  2  0
  6  8  1  6
  9 10  2  0
  9 11  1  1
  6 12  1  0
  9 12  1  0
  9 13  1  0
 13 14  1  0
 15 14  1  6
 15 16  1  0
 15 17  1  0
 17 18  1  1
 17 19  1  0
 19 20  1  1
 16 21  1  0
 19 21  1  0
 21 22  1  6
 22 23  1  0
 23 24  2  0
 24 25  1  0
 25 26  1  0
 26 27  2  0
 26 28  1  0
 28 29  1  0
 29 30  1  0
 29 31  2  0
 22 32  1  0
 25 32  2  0
 31 32  1  0
M  END
