7L7C_XQ1_A_201
     RDKit          3D

 21 23  0  0  0  0  0  0  0  0999 V2000
   23.9616   -6.1763    9.7627 C   0  0  0  0  0  0  0  0  0  0  0  0
   25.2873   -6.0960   10.1558 C   0  0  0  0  0  0  0  0  0  0  0  0
   20.7289   -4.3830    9.8438 C   0  0  0  0  0  0  0  0  0  0  0  0
   22.9910   -5.3682   10.3583 C   0  0  0  0  0  0  0  0  0  0  0  0
   19.3825   -4.5055    9.5343 C   0  0  0  0  0  0  0  0  0  0  0  0
   24.7133   -4.3560   11.7032 C   0  0  0  0  0  0  0  0  0  0  0  0
   25.6723   -5.1932   11.1361 C   0  0  0  0  0  0  0  0  0  0  0  0
   21.5560   -5.5082   10.0045 C   0  0  0  0  0  0  0  0  0  0  0  0
   24.0714   -2.4555   13.0438 C   0  0  0  0  0  0  0  0  0  0  0  0
   25.0843   -3.3686   12.5911 O   0  0  0  0  0  0  0  0  0  0  0  0
   17.5143   -6.3061    9.0925 C   0  0  0  0  0  0  0  0  0  0  0  0
   16.2634   -5.5346    8.8245 C   0  0  0  0  0  0  0  0  0  0  0  0
   16.4726   -4.4196    7.8350 C   0  0  0  0  0  0  0  0  0  0  0  0
   17.6582   -7.6401    9.1099 C   0  0  0  0  0  0  0  0  0  0  0  0
   19.6627   -6.8724    9.5271 C   0  0  0  0  0  0  0  0  0  0  0  0
   21.0005   -6.7821    9.8381 C   0  0  0  0  0  0  0  0  0  0  0  0
   23.3855   -4.4431   11.3256 C   0  0  0  0  0  0  0  0  0  0  0  0
   18.8288   -5.7774    9.3733 C   0  0  0  0  0  0  0  0  0  0  0  0
   16.5416   -3.2209    8.3763 O   0  0  0  0  0  0  0  0  0  0  0  0
   16.6278   -4.6493    6.6660 O   0  0  0  0  0  0  0  0  0  0  0  0
   18.9505   -8.0369    9.3673 O   0  0  0  0  0  0  0  0  0  0  0  0
  1  2  2  0
  1  4  1  0
  3  5  2  0
  6  7  2  0
  2  7  1  0
  3  8  1  0
  4  8  1  0
  9 10  1  0
  6 10  1  0
 11 12  1  0
 12 13  1  0
 11 14  2  0
 15 16  1  0
  8 16  2  0
  4 17  2  0
  6 17  1  0
 11 18  1  0
  5 18  1  0
 15 18  2  0
 13 19  2  0
 13 20  1  0
 14 21  1  0
 15 21  1  0
M  END
