7RUI_7QZ_A_201
     RDKit          3D

 80 85  0  0  0  0  0  0  0  0999 V2000
   14.6255   15.6119    7.1843 C   0  0  2  0  0  0  0  0  0  0  0  0
   12.0625   14.5763    3.0487 C   0  0  0  0  0  0  0  0  0  0  0  0
   11.4221   13.4733    3.6731 C   0  0  0  0  0  0  0  0  0  0  0  0
   10.3496   12.8074    3.0506 C   0  0  0  0  0  0  0  0  0  0  0  0
    9.9730   13.2323    1.7761 C   0  0  0  0  0  0  0  0  0  0  0  0
   10.5881   14.2832    1.1481 C   0  0  0  0  0  0  0  0  0  0  0  0
   11.6308   14.9821    1.7636 C   0  0  0  0  0  0  0  0  0  0  0  0
    9.0972   13.5327   -0.2193 C   0  0  0  0  0  0  0  0  0  0  0  0
    9.0092   12.7469    0.9210 C   0  0  0  0  0  0  0  0  0  0  0  0
   10.5124   15.4746   -1.1039 C   0  0  1  0  0  0  0  0  0  0  0  0
    9.4959   15.5975   -2.2609 C   0  0  1  0  0  0  0  0  0  0  0  0
   10.6085   16.8472   -0.4252 C   0  0  0  0  0  0  0  0  0  0  0  0
   11.9132   18.7254    0.2653 C   0  0  0  0  0  0  0  0  0  0  0  0
   15.2094   16.6854    5.0533 C   0  0  0  0  0  0  0  0  0  0  0  0
   15.0023   16.9032    3.6822 C   0  0  0  0  0  0  0  0  0  0  0  0
   14.0082   16.1738    3.0241 C   0  0  0  0  0  0  0  0  0  0  0  0
   13.1729   15.2994    3.7346 C   0  0  0  0  0  0  0  0  0  0  0  0
   13.3938   15.1483    5.1154 C   0  0  0  0  0  0  0  0  0  0  0  0
   14.4076   15.8167    5.7463 N   0  0  0  0  0  0  0  0  0  0  0  0
   10.0653   14.4812   -0.0883 N   0  0  0  0  0  0  0  0  0  0  0  0
   11.7960   17.5170   -0.3467 N   0  0  0  0  0  0  0  0  0  0  0  0
   10.7953   19.3248    0.8452 C   0  0  0  0  0  0  0  0  0  0  0  0
    9.5646   18.6716    0.7864 C   0  0  0  0  0  0  0  0  0  0  0  0
    9.4640   17.4332    0.1491 C   0  0  0  0  0  0  0  0  0  0  0  0
   11.8390   15.0255   -1.7365 C   0  0  0  0  0  0  0  0  0  0  0  0
   12.4501   13.8000   -1.3946 C   0  0  0  0  0  0  0  0  0  0  0  0
   13.6298   13.4136   -2.0325 C   0  0  0  0  0  0  0  0  0  0  0  0
   14.1806   14.2161   -3.0283 C   0  0  0  0  0  0  0  0  0  0  0  0
   13.5264   15.3923   -3.3885 C   0  0  0  0  0  0  0  0  0  0  0  0
   12.3851   15.7599   -2.7490 N   0  0  0  0  0  0  0  0  0  0  0  0
    9.6998   11.6992    3.6815 N   0  0  0  0  0  0  0  0  0  0  0  0
   10.5854   10.6170    4.7067 S   0  0  2  0  0  6  0  0  0  0  0  0
   10.5818    8.9534    4.0419 C   0  0  2  0  0  0  0  0  0  0  0  0
    9.7885    7.9829    4.9170 C   0  0  1  0  0  0  0  0  0  0  0  0
    8.7127    7.4694    4.2142 F   0  0  0  0  0  0  0  0  0  0  0  0
   10.6118    6.9393    5.2996 F   0  0  0  0  0  0  0  0  0  0  0  0
    9.3293    8.6236    6.0537 F   0  0  0  0  0  0  0  0  0  0  0  0
    9.9445   10.6179    6.0674 O   0  0  0  0  0  0  0  0  0  0  0  0
   12.0001   11.1090    4.8333 O   0  0  0  0  0  0  0  0  0  0  0  0
   15.8023   17.8612    2.9670 N   0  0  0  0  0  0  0  0  0  0  0  0
   16.9147   17.4833    2.1431 C   0  0  0  0  0  0  0  0  0  0  0  0
   17.8771   16.5410    2.6388 N   0  0  0  0  0  0  0  0  0  0  0  0
   19.1444   16.3083    2.0029 C   0  0  0  0  0  0  0  0  0  0  0  0
   20.1542   17.2781    2.1095 C   0  0  0  0  0  0  0  0  0  0  0  0
   21.3931   17.0791    1.4898 C   0  0  0  0  0  0  0  0  0  0  0  0
   21.6381   15.9036    0.7757 C   0  0  0  0  0  0  0  0  0  0  0  0
   20.6491   14.9195    0.6884 C   0  0  0  0  0  0  0  0  0  0  0  0
   19.4070   15.1136    1.3042 C   0  0  0  0  0  0  0  0  0  0  0  0
   18.4832   14.1216    1.2535 F   0  0  0  0  0  0  0  0  0  0  0  0
   17.0788   18.0247    1.0166 O   0  0  0  0  0  0  0  0  0  0  0  0
   16.1300   17.3121    5.6489 O   0  0  0  0  0  0  0  0  0  0  0  0
   15.6828   15.3258    7.3660 H   0  0  0  0  0  0  0  0  0  0  0  0
   13.9782   14.8055    7.5925 H   0  0  0  0  0  0  0  0  0  0  0  0
   14.3968   16.5472    7.7370 H   0  0  0  0  0  0  0  0  0  0  0  0
   11.7880   13.0994    4.6178 H   0  0  0  0  0  0  0  0  0  0  0  0
   12.0946   15.8171    1.2629 H   0  0  0  0  0  0  0  0  0  0  0  0
    8.4786   13.3935   -1.0953 H   0  0  0  0  0  0  0  0  0  0  0  0
    8.3325   11.9190    1.0888 H   0  0  0  0  0  0  0  0  0  0  0  0
    8.4569   15.4792   -1.8821 H   0  0  0  0  0  0  0  0  0  0  0  0
    9.5702   16.5955   -2.7434 H   0  0  0  0  0  0  0  0  0  0  0  0
    9.6682   14.8181   -3.0335 H   0  0  0  0  0  0  0  0  0  0  0  0
   12.8764   19.2178    0.3042 H   0  0  0  0  0  0  0  0  0  0  0  0
   13.9013   16.2855    1.9533 H   0  0  0  0  0  0  0  0  0  0  0  0
   12.7409   14.5040    5.6918 H   0  0  0  0  0  0  0  0  0  0  0  0
   10.8822   20.2851    1.3361 H   0  0  0  0  0  0  0  0  0  0  0  0
    8.6896   19.1226    1.2365 H   0  0  0  0  0  0  0  0  0  0  0  0
    8.5041   16.9329    0.1102 H   0  0  0  0  0  0  0  0  0  0  0  0
   12.0297   13.1421   -0.6463 H   0  0  0  0  0  0  0  0  0  0  0  0
   14.1123   12.4850   -1.7571 H   0  0  0  0  0  0  0  0  0  0  0  0
   15.0972   13.9222   -3.5251 H   0  0  0  0  0  0  0  0  0  0  0  0
   13.9259   16.0155   -4.1759 H   0  0  0  0  0  0  0  0  0  0  0  0
    8.6680   11.7488    3.8282 H   0  0  0  0  0  0  0  0  0  0  0  0
   11.6314    8.5955    3.9767 H   0  0  0  0  0  0  0  0  0  0  0  0
   10.1450    8.9728    3.0207 H   0  0  0  0  0  0  0  0  0  0  0  0
   15.4610   18.8460    2.9083 H   0  0  0  0  0  0  0  0  0  0  0  0
   17.7413   16.1708    3.6064 H   0  0  0  0  0  0  0  0  0  0  0  0
   19.9724   18.1975    2.6529 H   0  0  0  0  0  0  0  0  0  0  0  0
   22.1604   17.8385    1.5581 H   0  0  0  0  0  0  0  0  0  0  0  0
   22.5977   15.7495    0.2969 H   0  0  0  0  0  0  0  0  0  0  0  0
   20.8492   14.0014    0.1508 H   0  0  0  0  0  0  0  0  0  0  0  0
  2  3  2  0
  3  4  1  0
  4  5  2  0
  5  6  1  0
  6  7  2  0
  2  7  1  0
  8  9  2  0
  5  9  1  0
 10 11  1  0
 10 12  1  0
 14 15  1  0
 15 16  2  0
 16 17  1  0
  2 17  1  0
 17 18  2  0
 14 19  1  0
 18 19  1  0
  1 19  1  0
 10 20  1  1
  8 20  1  0
  6 20  1  0
 12 21  1  0
 13 21  2  0
 13 22  1  0
 22 23  2  0
 23 24  1  0
 12 24  2  0
 10 25  1  0
 25 26  2  0
 26 27  1  0
 27 28  2  0
 28 29  1  0
 29 30  2  0
 25 30  1  0
  4 31  1  0
 32 31  1  6
 32 33  1  0
 33 34  1  0
 34 35  1  6
 34 36  1  0
 34 37  1  0
 32 38  2  0
 32 39  2  0
 15 40  1  0
 40 41  1  0
 41 42  1  0
 42 43  1  0
 43 44  2  0
 44 45  1  0
 45 46  2  0
 46 47  1  0
 47 48  2  0
 43 48  1  0
 48 49  1  0
 41 50  2  0
 14 51  2  0
  1 52  1  6
  1 53  1  0
  1 54  1  0
  3 55  1  0
  7 56  1  0
  8 57  1  0
  9 58  1  0
 11 59  1  1
 11 60  1  0
 11 61  1  0
 13 62  1  0
 16 63  1  0
 18 64  1  0
 22 65  1  0
 23 66  1  0
 24 67  1  0
 26 68  1  0
 27 69  1  0
 28 70  1  0
 29 71  1  0
 31 72  1  0
 33 73  1  6
 33 74  1  0
 40 75  1  0
 42 76  1  0
 44 77  1  0
 45 78  1  0
 46 79  1  0
 47 80  1  0
M  END
