1W1P_GIO_B_1501
     RDKit          3D

 21 22  0  0  0  0  0  0  0  0999 V2000
    2.2095   -1.8305    0.3576 O   0  0  0  0  0  0  0  0  0  0  0  0
    1.2822   -1.0155    0.6113 C   0  0  0  0  0  0  0  0  0  0  0  0
    0.1541   -0.8132   -0.3667 C   0  0  2  0  0  0  0  0  0  0  0  0
    0.5968   -0.8202   -1.8297 C   0  0  0  0  0  0  0  0  0  0  0  0
   -0.2992    0.2093   -2.5182 C   0  0  0  0  0  0  0  0  0  0  0  0
   -0.7268    1.1803   -1.4222 C   0  0  0  0  0  0  0  0  0  0  0  0
   -0.4607    0.4898   -0.1733 N   0  0  0  0  0  0  0  0  0  0  0  0
   -0.5478    1.1138    1.1146 C   0  0  0  0  0  0  0  0  0  0  0  0
   -1.1758    2.1967    1.2594 O   0  0  0  0  0  0  0  0  0  0  0  0
    0.1003    0.4548    2.2952 C   0  0  0  0  0  0  0  0  0  0  0  0
    1.2620   -0.3268    1.8692 N   0  0  0  0  0  0  0  0  0  0  0  0
   -0.6129   -1.6003   -0.1977 H   0  0  0  0  0  0  0  0  0  0  0  0
    1.6563   -0.4922   -1.9240 H   0  0  0  0  0  0  0  0  0  0  0  0
    0.4813   -1.8278   -2.2846 H   0  0  0  0  0  0  0  0  0  0  0  0
   -1.1956   -0.3002   -2.9355 H   0  0  0  0  0  0  0  0  0  0  0  0
    0.2399    0.7322   -3.3379 H   0  0  0  0  0  0  0  0  0  0  0  0
   -1.8071    1.4269   -1.5059 H   0  0  0  0  0  0  0  0  0  0  0  0
   -0.1187    2.1098   -1.4732 H   0  0  0  0  0  0  0  0  0  0  0  0
    0.4223    1.2246    3.0291 H   0  0  0  0  0  0  0  0  0  0  0  0
   -0.6352   -0.2190    2.7826 H   0  0  0  0  0  0  0  0  0  0  0  0
    2.0396   -0.4847    2.5490 H   0  0  0  0  0  0  0  0  0  0  0  0
  1  2  2  0
  2  3  1  0
  3  4  1  0
  4  5  1  0
  5  6  1  0
  3  7  1  0
  6  7  1  0
  7  8  1  0
  8  9  2  0
  8 10  1  0
  2 11  1  0
 10 11  1  0
  3 12  1  6
  4 13  1  0
  4 14  1  0
  5 15  1  0
  5 16  1  0
  6 17  1  0
  6 18  1  0
 10 19  1  0
 10 20  1  0
 11 21  1  0
M  END
