7PUV_84Z_A_304
     RDKit          3D

 24 25  0  0  0  0  0  0  0  0999 V2000
   27.9932    8.1456   12.5896 O   0  0  0  0  0  0  0  0  0  0  0  0
   26.9245    8.2374   11.5131 S   0  0  2  0  0  0  0  0  0  0  0  0
   27.6810    8.6737   10.2611 O   0  0  0  0  0  0  0  0  0  0  0  0
   25.8495    9.5340   11.9193 C   0  0  0  0  0  0  0  0  0  0  0  0
   25.6240    9.7577   13.2865 C   0  0  0  0  0  0  0  0  0  0  0  0
   24.7531   10.7445   13.7115 C   0  0  0  0  0  0  0  0  0  0  0  0
   24.0723   11.5472   12.8073 C   0  0  0  0  0  0  0  0  0  0  0  0
   24.2959   11.3249   11.4644 C   0  0  0  0  0  0  0  0  0  0  0  0
   25.1655   10.3385   11.0601 C   0  0  0  0  0  0  0  0  0  0  0  0
   26.1787    6.7167   11.2141 C   0  0  0  0  0  0  0  0  0  0  0  0
   24.8417    6.7318   10.7862 C   0  0  0  0  0  0  0  0  0  0  0  0
   26.7287    5.4818   11.4027 C   0  0  0  0  0  0  0  0  0  0  0  0
   28.1208    5.3417   11.7816 C   0  0  0  0  0  0  0  0  0  0  0  0
   29.0796    5.7956   10.8628 O   0  0  0  0  0  0  0  0  0  0  0  0
   30.4368    5.3938   10.9627 C   0  0  0  0  0  0  0  0  0  0  0  0
   28.5606    4.8655   12.8265 O   0  0  0  0  0  0  0  0  0  0  0  0
   25.9786    4.3203   11.1778 C   0  0  0  0  0  0  0  0  0  0  0  0
   24.6677    4.3613   10.7591 C   0  0  0  0  0  0  0  0  0  0  0  0
   24.1094    5.5956   10.5656 C   0  0  0  0  0  0  0  0  0  0  0  0
   22.4343    5.7015   10.0284 Cl  0  0  0  0  0  0  0  0  0  0  0  0
   23.7365    2.9226   10.4800 S   0  0  2  0  0  0  0  0  0  0  0  0
   24.5874    1.7068   10.2846 O   0  0  0  0  0  0  0  0  0  0  0  0
   22.9292    3.1168    9.2282 O   0  0  0  0  0  0  0  0  0  0  0  0
   22.6402    2.6444   11.8011 N   0  0  0  0  0  0  0  0  0  0  0  0
  1  2  2  0
  2  3  2  0
  2  4  1  1
  4  5  2  0
  5  6  1  0
  6  7  2  0
  7  8  1  0
  8  9  2  0
  4  9  1  0
  2 10  1  0
 10 11  2  0
 10 12  1  0
 12 13  1  0
 13 14  1  0
 14 15  1  0
 13 16  2  0
 12 17  2  0
 17 18  1  0
 11 19  1  0
 18 19  2  0
 19 20  1  0
 18 21  1  0
 21 22  2  0
 21 23  2  0
 21 24  1  1
M  END
$$$$
