
     RDKit          3D

 34 35  0  0  0  0  0  0  0  0999 V2000
   11.8928   -5.0689  111.3990 C   0  0  0  0  0  0  0  0  0  0  0  0
   12.3988   -5.7839  110.3965 C   0  0  0  0  0  0  0  0  0  0  0  0
   13.2525   -3.7895  109.3180 C   0  0  0  0  0  0  0  0  0  0  0  0
   12.0975   -3.6110  111.3154 C   0  0  0  0  0  0  0  0  0  0  0  0
   13.7234   -5.9605  108.3187 C   0  0  2  0  0  0  0  0  0  0  0  0
   14.4467   -7.2053  108.8572 C   0  0  1  0  0  0  0  0  0  0  0  0
   14.5026   -8.0690  107.6085 C   0  0  1  0  0  0  0  0  0  0  0  0
   13.1851   -7.7553  106.8982 C   0  0  1  0  0  0  0  0  0  0  0  0
   12.0708   -8.7579  107.2023 C   0  0  0  0  0  0  0  0  0  0  0  0
    8.4815   -9.4610  105.4378 C   0  0  0  0  0  0  0  0  0  0  0  0
    7.9024  -10.3968  104.3779 C   0  0  2  0  0  0  0  0  0  0  0  0
    6.6782   -9.8416  103.6260 C   0  0  1  0  0  0  0  0  0  0  0  0
    6.9608   -8.8764  102.4580 C   0  0  2  0  0  0  0  0  0  0  0  0
    7.2223   -7.4259  102.8949 C   0  0  0  0  0  0  0  0  0  0  0  0
   13.0594   -5.1772  109.3506 N   0  0  0  0  0  0  0  0  0  0  0  0
   12.7231   -3.0342  110.3381 N   0  0  0  0  0  0  0  0  0  0  0  0
   11.6078   -2.8008  112.3032 N   0  0  0  0  0  0  0  0  0  0  0  0
   13.8541   -3.2519  108.3915 O   0  0  0  0  0  0  0  0  0  0  0  0
   12.7747   -6.4332  107.3304 O   0  0  0  0  0  0  0  0  0  0  0  0
   11.9672   -8.9840  108.5991 O   0  0  0  0  0  0  0  0  0  0  0  0
   10.4398  -10.7021  109.8323 O   0  0  0  0  0  0  0  0  0  0  0  0
   10.2134   -8.1338  110.1475 O   0  0  0  0  0  0  0  0  0  0  0  0
    9.5625   -9.1049  107.9376 O   0  0  0  0  0  0  0  0  0  0  0  0
    7.2124   -8.5921  108.9608 O   0  0  0  0  0  0  0  0  0  0  0  0
    7.9119  -10.9593  108.2609 O   0  0  0  0  0  0  0  0  0  0  0  0
    7.4935   -9.2733  106.4558 O   0  0  0  0  0  0  0  0  0  0  0  0
    6.8052   -7.2522  104.2539 O   0  0  0  0  0  0  0  0  0  0  0  0
    5.8983   -8.9090  101.4981 O   0  0  0  0  0  0  0  0  0  0  0  0
    5.9377  -10.9679  103.1123 O   0  0  0  0  0  0  0  0  0  0  0  0
    7.4788  -11.6196  105.0317 O   0  0  0  0  0  0  0  0  0  0  0  0
   15.6300   -7.6582  106.8079 O   0  0  0  0  0  0  0  0  0  0  0  0
   15.7435   -6.9635  109.3868 O   0  0  0  0  0  0  0  0  0  0  0  0
   10.5163   -9.3674  109.1744 P   0  0  1  0  0  5  0  0  0  0  0  0
    8.0014   -9.3802  107.9723 P   0  0  2  0  0  5  0  0  0  0  0  0
  1  2  4  0
  1  4  4  0
  5  6  1  0
  6  7  1  0
  7  8  1  0
  8  9  1  1
 10 11  1  0
 11 12  1  0
 12 13  1  0
 13 14  1  0
  2 15  4  0
  3 15  4  0
  5 15  1  1
  3 16  4  0
  4 16  4  0
  4 17  1  0
  3 18  2  0
  5 19  1  0
  8 19  1  0
  9 20  1  0
 10 26  1  0
 14 27  1  0
 13 28  1  6
 12 29  1  6
 11 30  1  1
  7 31  1  6
  6 32  1  6
 33 20  1  0
 21 33  2  0
 33 22  1  1
 23 33  1  0
 34 23  1  0
 24 34  2  0
 34 25  1  1
 26 34  1  0
M  END
