7T1D_E7K_B_1010
     RDKit          3D

 34 39  0  0  0  0  0  0  0  0999 V2000
   19.4916   -8.8802   34.9598 N   0  0  0  0  0  0  0  0  0  0  0  0
   13.4719  -16.7336   36.6400 N   0  0  0  0  0  0  0  0  0  0  0  0
   18.1682  -10.1923   36.6162 C   0  0  0  0  0  0  0  0  0  0  0  0
   18.4435  -12.3276   34.4706 C   0  0  0  0  0  0  0  0  0  0  0  0
   19.3261  -13.4266   34.2247 C   0  0  0  0  0  0  0  0  0  0  0  0
   18.8138  -14.7523   34.2595 C   0  0  0  0  0  0  0  0  0  0  0  0
   17.4910  -15.0048   34.5511 C   0  0  0  0  0  0  0  0  0  0  0  0
   15.5041  -16.4377   34.3651 C   0  0  0  0  0  0  0  0  0  0  0  0
   17.1117  -12.5599   34.7435 C   0  0  0  0  0  0  0  0  0  0  0  0
   12.1456  -16.7710   37.0859 C   0  0  0  0  0  0  0  0  0  0  0  0
    9.8535  -15.7600   36.9718 C   0  0  0  0  0  0  0  0  0  0  0  0
    7.3485  -13.6102   35.1804 C   0  0  0  0  0  0  0  0  0  0  0  0
    7.9149  -12.3024   35.2943 C   0  0  0  0  0  0  0  0  0  0  0  0
    9.0692  -12.0963   36.0156 C   0  0  0  0  0  0  0  0  0  0  0  0
    7.1392  -11.0390   33.3217 C   0  0  0  0  0  0  0  0  0  0  0  0
    6.3641   -9.3259   34.4310 C   0  0  0  0  0  0  0  0  0  0  0  0
   18.8693   -9.9805   35.3471 C   0  0  0  0  0  0  0  0  0  0  0  0
   20.0273   -9.1885   33.6978 C   0  0  0  0  0  0  0  0  0  0  0  0
   20.7811   -8.2098   32.9101 C   0  0  0  0  0  0  0  0  0  0  0  0
   18.9638  -10.9978   34.3823 N   0  0  0  0  0  0  0  0  0  0  0  0
   19.7123  -10.4962   33.3160 C   0  0  0  0  0  0  0  0  0  0  0  0
   16.6396  -13.8803   34.7909 C   0  0  0  0  0  0  0  0  0  0  0  0
   15.2043  -14.0339   35.1429 C   0  0  0  0  0  0  0  0  0  0  0  0
   14.8260  -15.4434   35.2509 N   0  0  0  0  0  0  0  0  0  0  0  0
   16.9753  -16.3860   34.6470 C   0  0  0  0  0  0  0  0  0  0  0  0
   13.6187  -15.7264   35.8520 C   0  0  0  0  0  0  0  0  0  0  0  0
   12.1918  -14.8298   35.5269 S   0  0  0  0  0  0  0  0  0  0  0  0
   11.3031  -15.8507   36.5961 C   0  0  0  0  0  0  0  0  0  0  0  0
    9.1858  -14.4946   36.4182 C   0  0  0  0  0  0  0  0  0  0  0  0
    9.7322  -13.1675   36.6064 C   0  0  0  0  0  0  0  0  0  0  0  0
    8.0159  -14.6549   35.7289 C   0  0  0  0  0  0  0  0  0  0  0  0
    7.2904  -11.2391   34.6944 N   0  0  0  0  0  0  0  0  0  0  0  0
    6.8385  -10.1383   35.3748 N   0  0  0  0  0  0  0  0  0  0  0  0
    6.5629   -9.8368   33.1195 C   0  0  0  0  0  0  0  0  0  0  0  0
  4  5  2  0
  5  6  1  0
  6  7  2  0
  4  9  1  0
  2 10  1  0
 12 13  2  0
 13 14  1  0
  1 17  2  0
  3 17  1  0
  1 18  1  0
 18 19  1  0
 17 20  1  0
  4 20  1  0
 18 21  2  0
 20 21  1  0
  9 22  2  0
  7 22  1  0
 22 23  1  0
 23 24  1  0
  8 24  1  0
  7 25  1  0
  8 25  1  0
 24 26  1  0
  2 26  2  0
 26 27  1  0
 10 28  2  0
 27 28  1  0
 11 28  1  0
 11 29  1  0
 29 30  1  0
 14 30  2  0
 29 31  2  0
 12 31  1  0
 13 32  1  0
 15 32  1  0
 32 33  1  0
 16 33  2  0
 15 34  2  0
 16 34  1  0
M  END
