6Z2C_Q5E_B_201
     RDKit          3D

 26 28  0  0  0  0  0  0  0  0999 V2000
  -26.8139   10.6885   25.3113 O   0  0  0  0  0  0  0  0  0  0  0  0
  -26.2855    9.6032   25.0253 C   0  0  0  0  0  0  0  0  0  0  0  0
  -26.6255    8.9236   23.8434 C   0  0  1  0  0  0  0  0  0  0  0  0
  -26.0945    9.5623   22.5135 C   0  0  1  0  0  0  0  0  0  0  0  0
  -25.9617    8.3299   21.6167 C   0  0  1  0  0  0  0  0  0  0  0  0
  -27.5706    7.3925   21.2284 Cl  0  0  0  0  0  0  0  0  0  0  0  0
  -25.2966    8.7203   19.9320 Cl  0  0  0  0  0  0  0  0  0  0  0  0
  -27.1582   10.8680   21.8436 Cl  0  0  0  0  0  0  0  0  0  0  0  0
  -24.7396    9.9040   22.6530 C   0  0  0  0  0  0  0  0  0  0  0  0
  -24.2033   11.5699   22.7978 Cl  0  0  0  0  0  0  0  0  0  0  0  0
  -24.0217    8.7826   22.6694 C   0  0  0  0  0  0  0  0  0  0  0  0
  -22.3128    8.6706   22.8431 Cl  0  0  0  0  0  0  0  0  0  0  0  0
  -24.9614    7.7072   22.5686 C   0  0  2  0  0  0  0  0  0  0  0  0
  -24.3596    6.1397   21.9652 Cl  0  0  0  0  0  0  0  0  0  0  0  0
  -25.8293    7.6590   23.8856 C   0  0  1  0  0  0  0  0  0  0  0  0
  -25.1106    7.7629   25.0643 C   0  0  0  0  0  0  0  0  0  0  0  0
  -24.3452    6.8841   25.4489 O   0  0  0  0  0  0  0  0  0  0  0  0
  -25.4044    8.8937   25.7577 N   0  0  0  0  0  0  0  0  0  0  0  0
  -24.7363    9.1521   27.0481 C   0  0  0  0  0  0  0  0  0  0  0  0
  -23.5857   10.1537   26.9239 C   0  0  0  0  0  0  0  0  0  0  0  0
  -22.3816    9.4968   26.2935 C   0  0  0  0  0  0  0  0  0  0  0  0
  -22.6381    9.2716   24.8144 C   0  0  0  0  0  0  0  0  0  0  0  0
  -21.3459    8.8153   24.1395 C   0  0  0  0  0  0  0  0  0  0  0  0
  -20.7269    9.9960   23.4122 C   0  0  0  0  0  0  0  0  0  0  0  0
  -21.4769   10.9600   23.1958 O   0  0  0  0  0  0  0  0  0  0  0  0
  -19.5171    9.9113   23.0966 O   0  0  0  0  0  0  0  0  0  0  0  0
  1  2  2  0
  3  2  1  1
  3  4  1  0
  4  5  1  0
  5  6  1  6
  5  7  1  0
  4  8  1  6
  4  9  1  0
  9 10  1  0
  9 11  2  0
 11 12  1  0
  5 13  1  0
 11 13  1  0
 13 14  1  6
 13 15  1  0
  3 15  1  0
 15 16  1  1
 16 17  2  0
 16 18  1  0
  2 18  1  0
 18 19  1  0
 19 20  1  0
 20 21  1  0
 21 22  1  0
 22 23  1  0
 23 24  1  0
 24 25  1  0
 24 26  2  0
M  END
