7R9N_F97_B_301
     RDKit          3D

 57 61  0  0  0  0  0  0  0  0999 V2000
  -42.3209  -90.2466  246.2740 C   0  0  0  0  0  0  0  0  0  0  0  0
  -41.4750  -90.6870  245.2525 C   0  0  0  0  0  0  0  0  0  0  0  0
  -41.8276  -90.3480  243.9242 C   0  0  0  0  0  0  0  0  0  0  0  0
  -43.4346  -89.5120  245.9920 C   0  0  0  0  0  0  0  0  0  0  0  0
  -43.2688  -89.7864  248.1760 N   0  0  0  0  0  0  0  0  0  0  0  0
  -39.0152  -91.8751  241.9312 C   0  0  0  0  0  0  0  0  0  0  0  0
  -38.4089  -95.8599  245.1155 C   0  0  2  0  0  0  0  0  0  0  0  0
  -38.8036  -96.5440  246.4181 C   0  0  1  0  0  0  0  0  0  0  0  0
  -40.3716  -94.7324  245.9768 C   0  0  1  0  0  0  0  0  0  0  0  0
  -35.9071  -94.0799  241.4833 C   0  0  2  0  0  0  0  0  0  0  0  0
  -40.1557  -90.0933  248.9335 C   0  0  1  0  0  0  0  0  0  0  0  0
  -41.2021  -91.0848  248.4154 C   0  0  2  0  0  0  0  0  0  0  0  0
  -40.5670  -92.2497  247.6493 C   0  0  2  0  0  0  0  0  0  0  0  0
  -42.2322  -90.4054  247.6161 N   0  0  0  0  0  0  0  0  0  0  0  0
  -42.9443  -89.5875  243.6863 N   0  0  0  0  0  0  0  0  0  0  0  0
  -43.7657  -89.1633  244.6903 C   0  0  0  0  0  0  0  0  0  0  0  0
  -44.0251  -89.2310  247.2009 C   0  0  0  0  0  0  0  0  0  0  0  0
  -40.9996  -90.7359  242.8193 N   0  0  0  0  0  0  0  0  0  0  0  0
  -40.0250  -91.7873  242.8928 C   0  0  0  0  0  0  0  0  0  0  0  0
  -38.0868  -92.9238  242.0189 C   0  0  0  0  0  0  0  0  0  0  0  0
  -38.2074  -93.8338  243.0222 N   0  0  0  0  0  0  0  0  0  0  0  0
  -39.2061  -93.7503  243.9416 C   0  0  0  0  0  0  0  0  0  0  0  0
  -40.1033  -92.7317  243.8682 N   0  0  0  0  0  0  0  0  0  0  0  0
  -39.3200  -94.7383  244.9755 N   0  0  0  0  0  0  0  0  0  0  0  0
  -40.2128  -96.0439  246.7395 C   0  0  1  0  0  0  0  0  0  0  0  0
  -41.1490  -96.9642  246.2964 F   0  0  0  0  0  0  0  0  0  0  0  0
  -40.3701  -95.8475  248.1013 F   0  0  0  0  0  0  0  0  0  0  0  0
  -36.9565  -93.0747  241.0218 C   0  0  1  0  0  0  0  0  0  0  0  0
  -34.6697  -93.2563  241.8267 C   0  0  1  0  0  0  0  0  0  0  0  0
  -35.0092  -91.8397  241.6938 N   0  0  0  0  0  0  0  0  0  0  0  0
  -36.1834  -91.7751  240.8300 C   0  0  1  0  0  0  0  0  0  0  0  0
  -40.5712  -91.2371  245.4558 H   0  0  0  0  0  0  0  0  0  0  0  0
  -38.9486  -91.1362  241.1430 H   0  0  0  0  0  0  0  0  0  0  0  0
  -38.5358  -96.5527  244.2555 H   0  0  0  0  0  0  0  0  0  0  0  0
  -37.3572  -95.5028  245.1637 H   0  0  0  0  0  0  0  0  0  0  0  0
  -38.7722  -97.6509  246.3199 H   0  0  0  0  0  0  0  0  0  0  0  0
  -38.1022  -96.2330  247.2238 H   0  0  0  0  0  0  0  0  0  0  0  0
  -40.2339  -93.8632  246.6526 H   0  0  0  0  0  0  0  0  0  0  0  0
  -41.3701  -94.6727  245.4912 H   0  0  0  0  0  0  0  0  0  0  0  0
  -35.6698  -94.7879  240.6586 H   0  0  0  0  0  0  0  0  0  0  0  0
  -36.2435  -94.6751  242.3615 H   0  0  0  0  0  0  0  0  0  0  0  0
  -39.6875  -90.4909  249.8587 H   0  0  0  0  0  0  0  0  0  0  0  0
  -39.3595  -89.9521  248.1718 H   0  0  0  0  0  0  0  0  0  0  0  0
  -40.6030  -89.1053  249.1584 H   0  0  0  0  0  0  0  0  0  0  0  0
  -41.6959  -91.5260  249.3106 H   0  0  0  0  0  0  0  0  0  0  0  0
  -40.9903  -93.2136  248.0033 H   0  0  0  0  0  0  0  0  0  0  0  0
  -39.4709  -92.2633  247.8286 H   0  0  0  0  0  0  0  0  0  0  0  0
  -40.7308  -92.1611  246.5585 H   0  0  0  0  0  0  0  0  0  0  0  0
  -44.6416  -88.5669  244.4722 H   0  0  0  0  0  0  0  0  0  0  0  0
  -44.9276  -88.6587  247.3689 H   0  0  0  0  0  0  0  0  0  0  0  0
  -41.1723  -90.2795  241.8951 H   0  0  0  0  0  0  0  0  0  0  0  0
  -37.3790  -93.3985  240.0435 H   0  0  0  0  0  0  0  0  0  0  0  0
  -34.3477  -93.4593  242.8705 H   0  0  0  0  0  0  0  0  0  0  0  0
  -33.8342  -93.5223  241.1397 H   0  0  0  0  0  0  0  0  0  0  0  0
  -34.2159  -91.3336  241.2342 H   0  0  0  0  0  0  0  0  0  0  0  0
  -35.8656  -91.6889  239.7651 H   0  0  0  0  0  0  0  0  0  0  0  0
  -36.7932  -90.8804  241.0828 H   0  0  0  0  0  0  0  0  0  0  0  0
  1  2  2  0
  2  3  1  0
  1  4  1  0
  7  8  1  0
 11 12  1  0
 12 13  1  0
  1 14  1  0
  5 14  1  0
 12 14  1  0
  3 15  2  0
 15 16  1  0
  4 16  2  0
  4 17  1  0
  5 17  2  0
  3 18  1  0
 18 19  1  0
  6 19  2  0
  6 20  1  0
 20 21  2  0
 21 22  1  0
 19 23  1  0
 22 23  2  0
 22 24  1  0
  9 24  1  0
  7 24  1  0
  9 25  1  0
  8 25  1  0
 25 26  1  6
 25 27  1  0
 10 28  1  0
 28 20  1  0
 10 29  1  0
 29 30  1  0
 28 31  1  0
 30 31  1  0
  2 32  1  0
  6 33  1  0
  7 34  1  6
  7 35  1  0
  8 36  1  6
  8 37  1  0
  9 38  1  1
  9 39  1  0
 10 40  1  6
 10 41  1  0
 11 42  1  1
 11 43  1  0
 11 44  1  0
 12 45  1  1
 13 46  1  1
 13 47  1  0
 13 48  1  0
 16 49  1  0
 17 50  1  0
 18 51  1  0
 28 52  1  6
 29 53  1  1
 29 54  1  0
 30 55  1  0
 31 56  1  6
 31 57  1  0
M  END
