5SAK_ZRY_A_404
     RDKit          3D

 18 20  0  0  0  0  0  0  0  0999 V2000
   31.0483    0.4413   57.8905 N   0  0  0  0  0  0  0  0  0  0  0  0
   28.2077    1.7091   56.2457 C   0  0  0  0  0  0  0  0  0  0  0  0
   26.9515    1.3082   52.9943 C   0  0  0  0  0  0  0  0  0  0  0  0
   27.4310    1.8638   55.2593 N   0  0  0  0  0  0  0  0  0  0  0  0
   27.5097    1.0287   51.7533 C   0  0  0  0  0  0  0  0  0  0  0  0
   29.1595    1.9827   58.3265 C   0  0  0  0  0  0  0  0  0  0  0  0
   27.0982    3.2165   58.0719 C   0  0  0  0  0  0  0  0  0  0  0  0
   28.0760    2.3704   57.5501 C   0  0  0  0  0  0  0  0  0  0  0  0
   27.7342    1.1682   54.1543 N   0  0  0  0  0  0  0  0  0  0  0  0
   27.2377    3.6672   59.3812 C   0  0  0  0  0  0  0  0  0  0  0  0
   28.3343    3.2913   60.1535 C   0  0  0  0  0  0  0  0  0  0  0  0
   29.3041    2.4504   59.6354 C   0  0  0  0  0  0  0  0  0  0  0  0
   29.3704    0.9093   56.3272 N   0  0  0  0  0  0  0  0  0  0  0  0
   29.9451    1.0635   57.5246 C   0  0  0  0  0  0  0  0  0  0  0  0
   26.7632    1.1899   50.5976 C   0  0  0  0  0  0  0  0  0  0  0  0
   25.4502    1.5957   50.6708 C   0  0  0  0  0  0  0  0  0  0  0  0
   24.8743    1.8283   51.8991 C   0  0  0  0  0  0  0  0  0  0  0  0
   25.6216    1.7085   53.0622 C   0  0  0  0  0  0  0  0  0  0  0  0
  2  4  2  0
  3  5  2  0
  7  8  2  0
  6  8  1  0
  2  8  1  0
  4  9  1  0
  3  9  1  0
  7 10  1  0
 10 11  2  0
  6 12  2  0
 11 12  1  0
  2 13  1  0
 13 14  1  0
  1 14  2  0
  6 14  1  0
  5 15  1  0
 15 16  2  0
 16 17  1  0
 17 18  2  0
  3 18  1  0
M  END
