1R9O_FLP_A_501
     RDKit          3D

 18 19  0  0  0  0  0  0  0  0999 V2000
   13.5152   29.0684  -31.0655 C   0  0  0  0  0  0  0  0  0  0  0  0
   13.8230   29.6578  -29.8521 C   0  0  0  0  0  0  0  0  0  0  0  0
   13.8634   28.9010  -28.6788 C   0  0  0  0  0  0  0  0  0  0  0  0
   13.5928   27.5299  -28.7083 C   0  0  0  0  0  0  0  0  0  0  0  0
   13.2831   26.9427  -29.9363 C   0  0  0  0  0  0  0  0  0  0  0  0
   13.2433   27.6967  -31.1023 C   0  0  0  0  0  0  0  0  0  0  0  0
   14.1940   29.5464  -27.3907 C   0  0  0  0  0  0  0  0  0  0  0  0
   14.9250   28.8622  -26.4219 C   0  0  0  0  0  0  0  0  0  0  0  0
   15.2445   29.4459  -25.2126 C   0  0  0  0  0  0  0  0  0  0  0  0
   14.8244   30.7267  -24.9793 C   0  0  0  0  0  0  0  0  0  0  0  0
   14.1005   31.4032  -25.9396 C   0  0  0  0  0  0  0  0  0  0  0  0
   13.7696   30.8406  -27.1546 C   0  0  0  0  0  0  0  0  0  0  0  0
   15.1374   31.3952  -23.7085 C   0  0  2  0  0  0  0  0  0  0  0  0
   13.8069   31.6907  -23.0086 C   0  0  0  0  0  0  0  0  0  0  0  0
   15.9439   32.6129  -23.8270 C   0  0  0  0  0  0  0  0  0  0  0  0
   15.3890   33.7407  -23.9033 O   0  0  0  0  0  0  0  0  0  0  0  0
   17.3127   32.5258  -23.8554 O   0  0  0  0  0  0  0  0  0  0  0  0
   13.0471   31.5438  -28.0883 F   0  0  0  0  0  0  0  0  0  0  0  0
  1  2  2  0
  2  3  1  0
  3  4  2  0
  4  5  1  0
  1  6  1  0
  5  6  2  0
  3  7  1  0
  7  8  2  0
  8  9  1  0
  9 10  2  0
 10 11  1  0
  7 12  1  0
 11 12  2  0
 10 13  1  0
 14 13  1  1
 13 15  1  6
 15 16  2  0
 15 17  1  0
 12 18  1  0
M  END
$$$$
