
     RDKit          3D

 37 41  0  0  0  0  0  0  0  0999 V2000
   -7.6613  -19.9527   15.2836 C   0  0  0  0  0  0  0  0  0  0  0  0
   -6.4961  -19.6805   16.0113 C   0  0  0  0  0  0  0  0  0  0  0  0
   -5.5517  -20.6849   16.2847 C   0  0  0  0  0  0  0  0  0  0  0  0
   -5.8318  -21.9693   15.7852 C   0  0  0  0  0  0  0  0  0  0  0  0
   -6.9987  -22.2316   15.0570 C   0  0  0  0  0  0  0  0  0  0  0  0
   -7.9198  -21.2275   14.8026 C   0  0  0  0  0  0  0  0  0  0  0  0
   -7.2885  -23.8202   14.4586 Cl  0  0  0  0  0  0  0  0  0  0  0  0
   -4.3535  -20.4143   17.0233 N   0  0  0  0  0  0  0  0  0  0  0  0
   -3.8760  -21.1670   18.0789 C   0  0  0  0  0  0  0  0  0  0  0  0
   -2.7258  -20.5674   18.5731 N   0  0  0  0  0  0  0  0  0  0  0  0
   -2.3512  -19.3904   17.8120 C   0  0  2  0  0  0  0  0  0  0  0  0
   -3.4761  -19.3764   16.7693 C   0  0  0  0  0  0  0  0  0  0  0  0
   -3.5263  -18.5485   15.8651 O   0  0  0  0  0  0  0  0  0  0  0  0
   -0.9845  -19.4584   17.0950 C   0  0  0  0  0  0  0  0  0  0  0  0
   -0.3897  -18.1240   17.2759 N   0  0  0  0  0  0  0  0  0  0  0  0
   -1.3855  -17.1836   17.7782 C   0  0  0  0  0  0  0  0  0  0  0  0
   -2.3016  -18.0806   18.6326 C   0  0  1  0  0  0  0  0  0  0  0  0
   -3.6405  -17.5142   19.0692 C   0  0  0  0  0  0  0  0  0  0  0  0
   -4.4725  -18.3008   19.8849 C   0  0  0  0  0  0  0  0  0  0  0  0
   -5.7274  -17.8399   20.2927 C   0  0  0  0  0  0  0  0  0  0  0  0
   -6.1765  -16.5821   19.8882 C   0  0  0  0  0  0  0  0  0  0  0  0
   -5.3641  -15.7926   19.0716 C   0  0  0  0  0  0  0  0  0  0  0  0
   -4.1075  -16.2550   18.6654 C   0  0  0  0  0  0  0  0  0  0  0  0
   -7.4627  -16.1058   20.3049 C   0  0  0  0  0  0  0  0  0  0  0  0
   -8.5028  -15.7192   20.6452 N   0  0  0  0  0  0  0  0  0  0  0  0
    0.6201  -17.7552   16.4119 C   0  0  0  0  0  0  0  0  0  0  0  0
    1.7975  -17.3611   16.9493 N   0  0  0  0  0  0  0  0  0  0  0  0
    2.8017  -16.9705   16.1213 C   0  0  0  0  0  0  0  0  0  0  0  0
    2.6951  -16.9388   14.7438 C   0  0  0  0  0  0  0  0  0  0  0  0
    1.4825  -17.3287   14.1879 C   0  0  0  0  0  0  0  0  0  0  0  0
    0.4413  -17.7336   15.0283 C   0  0  0  0  0  0  0  0  0  0  0  0
    3.8000  -16.5080   13.8693 C   0  0  0  0  0  0  0  0  0  0  0  0
    4.4236  -15.4686   13.9757 O   0  0  0  0  0  0  0  0  0  0  0  0
    4.0771  -17.3968   12.9005 O   0  0  0  0  0  0  0  0  0  0  0  0
   -1.8820  -21.1780   19.5818 C   0  0  0  0  0  0  0  0  0  0  0  0
   -4.3328  -22.1957   18.5556 O   0  0  0  0  0  0  0  0  0  0  0  0
   -8.7939  -18.6899   14.9852 Cl  0  0  0  0  0  0  0  0  0  0  0  0
  1  2  4  0
  2  3  4  0
  3  4  4  0
  4  5  4  0
  1  6  4  0
  5  6  4  0
  5  7  1  0
  3  8  1  0
  8  9  1  0
  9 10  1  0
 10 11  1  0
  8 12  1  0
 11 12  1  0
 12 13  2  0
 11 14  1  6
 14 15  1  0
 15 16  1  0
 11 17  1  0
 16 17  1  0
 17 18  1  6
 18 19  4  0
 19 20  4  0
 20 21  4  0
 21 22  4  0
 18 23  4  0
 22 23  4  0
 21 24  1  0
 24 25  3  0
 15 26  1  0
 26 27  4  0
 27 28  4  0
 28 29  4  0
 29 30  4  0
 26 31  4  0
 30 31  4  0
 29 32  1  0
 32 33  2  0
 32 34  1  0
 10 35  1  0
  9 36  2  0
  1 37  1  0
M  END
