7T1D_E7K_B_1010
     RDKit          3D

 60 65  0  0  0  0  0  0  0  0999 V2000
   -6.9505   -0.8316    2.9165 N   0  0  0  0  0  0  0  0  0  0  0  0
    3.2288    1.0213    0.5744 N   0  0  0  0  0  0  0  0  0  0  0  0
   -5.9591    0.3621    4.8699 C   0  0  0  0  0  0  0  0  0  0  0  0
   -3.3854   -0.0668    3.1464 C   0  0  0  0  0  0  0  0  0  0  0  0
   -2.8548   -0.2828    4.4291 C   0  0  0  0  0  0  0  0  0  0  0  0
   -1.5578    0.1339    4.7382 C   0  0  0  0  0  0  0  0  0  0  0  0
   -0.7617    0.7421    3.7581 C   0  0  0  0  0  0  0  0  0  0  0  0
    1.5841    1.0009    2.9360 C   0  0  0  0  0  0  0  0  0  0  0  0
   -2.5825    0.5424    2.1667 C   0  0  0  0  0  0  0  0  0  0  0  0
    3.8655    1.1188   -0.6224 C   0  0  0  0  0  0  0  0  0  0  0  0
    3.4715    1.6024   -3.1171 C   0  0  0  0  0  0  0  0  0  0  0  0
    5.0140   -1.6477   -4.3742 C   0  0  0  0  0  0  0  0  0  0  0  0
    3.8856   -2.3511   -4.8288 C   0  0  0  0  0  0  0  0  0  0  0  0
    2.6212   -1.7411   -4.7296 C   0  0  0  0  0  0  0  0  0  0  0  0
    3.0820   -4.6057   -5.5432 C   0  0  0  0  0  0  0  0  0  0  0  0
    4.9617   -5.3693   -6.3509 C   0  0  0  0  0  0  0  0  0  0  0  0
   -5.8667   -0.3149    3.5371 C   0  0  0  0  0  0  0  0  0  0  0  0
   -6.4623   -1.3170    1.7580 C   0  0  0  0  0  0  0  0  0  0  0  0
   -7.2832   -2.0330    0.7397 C   0  0  0  0  0  0  0  0  0  0  0  0
   -4.7261   -0.4798    2.8219 N   0  0  0  0  0  0  0  0  0  0  0  0
   -5.1037   -1.1055    1.6917 C   0  0  0  0  0  0  0  0  0  0  0  0
   -1.2687    0.9343    2.4653 C   0  0  0  0  0  0  0  0  0  0  0  0
   -0.4138    1.6166    1.4305 C   0  0  0  0  0  0  0  0  0  0  0  0
    1.0124    1.2816    1.6061 N   0  0  0  0  0  0  0  0  0  0  0  0
    0.6027    1.2686    4.0859 C   0  0  0  0  0  0  0  0  0  0  0  0
    1.9081    1.3033    0.4754 C   0  0  0  0  0  0  0  0  0  0  0  0
    1.4772    1.6773   -1.1149 S   0  0  0  0  0  0  0  0  0  0  0  0
    3.0463    1.4771   -1.6884 C   0  0  0  0  0  0  0  0  0  0  0  0
    3.6209    0.2387   -3.7358 C   0  0  0  0  0  0  0  0  0  0  0  0
    2.4910   -0.4595   -4.1858 C   0  0  0  0  0  0  0  0  0  0  0  0
    4.8822   -0.3698   -3.8229 C   0  0  0  0  0  0  0  0  0  0  0  0
    4.0386   -3.6632   -5.4049 N   0  0  0  0  0  0  0  0  0  0  0  0
    5.1815   -4.1230   -5.8917 N   0  0  0  0  0  0  0  0  0  0  0  0
    3.6412   -5.7115   -6.1447 C   0  0  0  0  0  0  0  0  0  0  0  0
   -5.2238    1.1923    4.9385 H   0  0  0  0  0  0  0  0  0  0  0  0
   -5.7696   -0.3780    5.6756 H   0  0  0  0  0  0  0  0  0  0  0  0
   -6.9754    0.7873    5.0045 H   0  0  0  0  0  0  0  0  0  0  0  0
   -3.4386   -0.7824    5.1890 H   0  0  0  0  0  0  0  0  0  0  0  0
   -1.1753   -0.0151    5.7406 H   0  0  0  0  0  0  0  0  0  0  0  0
    1.9012   -0.0638    2.9717 H   0  0  0  0  0  0  0  0  0  0  0  0
    2.4825    1.6344    3.0991 H   0  0  0  0  0  0  0  0  0  0  0  0
   -2.9858    0.7222    1.1769 H   0  0  0  0  0  0  0  0  0  0  0  0
    4.9197    0.9054   -0.7285 H   0  0  0  0  0  0  0  0  0  0  0  0
    2.7179    2.1933   -3.6823 H   0  0  0  0  0  0  0  0  0  0  0  0
    4.4300    2.1618   -3.1654 H   0  0  0  0  0  0  0  0  0  0  0  0
    5.9995   -2.0935   -4.4353 H   0  0  0  0  0  0  0  0  0  0  0  0
    1.7326   -2.2440   -5.0854 H   0  0  0  0  0  0  0  0  0  0  0  0
    2.0533   -4.5155   -5.2177 H   0  0  0  0  0  0  0  0  0  0  0  0
    5.7164   -5.9895   -6.8108 H   0  0  0  0  0  0  0  0  0  0  0  0
   -8.3631   -1.8621    0.9315 H   0  0  0  0  0  0  0  0  0  0  0  0
   -7.0342   -1.6556   -0.2748 H   0  0  0  0  0  0  0  0  0  0  0  0
   -7.0700   -3.1215    0.7913 H   0  0  0  0  0  0  0  0  0  0  0  0
   -4.4394   -1.4029    0.8894 H   0  0  0  0  0  0  0  0  0  0  0  0
   -0.7610    1.3008    0.4226 H   0  0  0  0  0  0  0  0  0  0  0  0
   -0.5444    2.7162    1.5162 H   0  0  0  0  0  0  0  0  0  0  0  0
    0.5285    2.3640    4.2645 H   0  0  0  0  0  0  0  0  0  0  0  0
    0.9974    0.7942    5.0120 H   0  0  0  0  0  0  0  0  0  0  0  0
    1.5068   -0.0119   -4.1139 H   0  0  0  0  0  0  0  0  0  0  0  0
    5.7645    0.1430   -3.4628 H   0  0  0  0  0  0  0  0  0  0  0  0
    3.1519   -6.6437   -6.3973 H   0  0  0  0  0  0  0  0  0  0  0  0
  4  5  2  0
  5  6  1  0
  6  7  2  0
  4  9  1  0
  2 10  1  0
 12 13  2  0
 13 14  1  0
  1 17  2  0
  3 17  1  0
  1 18  1  0
 18 19  1  0
 17 20  1  0
  4 20  1  0
 18 21  2  0
 20 21  1  0
  9 22  2  0
  7 22  1  0
 22 23  1  0
 23 24  1  0
  8 24  1  0
  7 25  1  0
  8 25  1  0
 24 26  1  0
  2 26  2  0
 26 27  1  0
 10 28  2  0
 27 28  1  0
 11 28  1  0
 11 29  1  0
 29 30  1  0
 14 30  2  0
 29 31  2  0
 12 31  1  0
 13 32  1  0
 15 32  1  0
 32 33  1  0
 16 33  2  0
 15 34  2  0
 16 34  1  0
  3 35  1  0
  3 36  1  0
  3 37  1  0
  5 38  1  0
  6 39  1  0
  8 40  1  0
  8 41  1  0
  9 42  1  0
 10 43  1  0
 11 44  1  0
 11 45  1  0
 12 46  1  0
 14 47  1  0
 15 48  1  0
 16 49  1  0
 19 50  1  0
 19 51  1  0
 19 52  1  0
 21 53  1  0
 23 54  1  0
 23 55  1  0
 25 56  1  0
 25 57  1  0
 30 58  1  0
 31 59  1  0
 34 60  1  0
M  END
