7T1D_E7K_B_1010
     RDKit          3D

 34 39  0  0  0  0  0  0  0  0999 V2000
   21.7880   -8.6300   29.4440 N   0  0  0  0  0  0  0  0  0  0  0  0
   25.8110   -7.7170   21.4810 N   0  0  0  0  0  0  0  0  0  0  0  0
   23.5940   -7.5850   28.0790 C   0  0  0  0  0  0  0  0  0  0  0  0
   21.3580   -7.4750   26.0230 C   0  0  0  0  0  0  0  0  0  0  0  0
   20.3850   -6.5190   25.5910 C   0  0  0  0  0  0  0  0  0  0  0  0
   20.4570   -6.0010   24.2690 C   0  0  0  0  0  0  0  0  0  0  0  0
   21.4590   -6.3790   23.4020 C   0  0  0  0  0  0  0  0  0  0  0  0
   22.2780   -6.7200   21.1110 C   0  0  0  0  0  0  0  0  0  0  0  0
   22.3560   -7.8810   25.1620 C   0  0  0  0  0  0  0  0  0  0  0  0
   26.8080   -7.6870   20.4990 C   0  0  0  0  0  0  0  0  0  0  0  0
   27.4560   -7.0130   18.1720 C   0  0  0  0  0  0  0  0  0  0  0  0
   27.0550   -7.9530   14.5580 C   0  0  0  0  0  0  0  0  0  0  0  0
   26.1220   -9.0350   14.6140 C   0  0  0  0  0  0  0  0  0  0  0  0
   25.6760   -9.5170   15.8240 C   0  0  0  0  0  0  0  0  0  0  0  0
   25.7350   -9.0420   12.1770 C   0  0  0  0  0  0  0  0  0  0  0  0
   24.7000  -10.9630   12.1100 C   0  0  0  0  0  0  0  0  0  0  0  0
   22.2410   -8.0910   28.3250 C   0  0  0  0  0  0  0  0  0  0  0  0
   20.4360   -8.9170   29.1900 C   0  0  0  0  0  0  0  0  0  0  0  0
   19.5730   -9.5540   30.1880 C   0  0  0  0  0  0  0  0  0  0  0  0
   21.2420   -8.0240   27.3390 N   0  0  0  0  0  0  0  0  0  0  0  0
   20.0730   -8.5520   27.8900 C   0  0  0  0  0  0  0  0  0  0  0  0
   22.4130   -7.3370   23.8700 C   0  0  0  0  0  0  0  0  0  0  0  0
   23.5520   -7.7950   23.0330 C   0  0  0  0  0  0  0  0  0  0  0  0
   23.5760   -7.1120   21.7390 N   0  0  0  0  0  0  0  0  0  0  0  0
   21.5670   -5.7930   22.0500 C   0  0  0  0  0  0  0  0  0  0  0  0
   24.7290   -7.2200   20.9920 C   0  0  0  0  0  0  0  0  0  0  0  0
   24.8530   -6.6140   19.3910 S   0  0  0  0  0  0  0  0  0  0  0  0
   26.4990   -7.1250   19.3220 C   0  0  0  0  0  0  0  0  0  0  0  0
   26.9750   -7.7840   16.9360 C   0  0  0  0  0  0  0  0  0  0  0  0
   26.0890   -8.9260   17.0140 C   0  0  0  0  0  0  0  0  0  0  0  0
   27.4280   -7.3590   15.7180 C   0  0  0  0  0  0  0  0  0  0  0  0
   25.6820   -9.6110   13.4500 N   0  0  0  0  0  0  0  0  0  0  0  0
   24.9930  -10.7950   13.3990 N   0  0  0  0  0  0  0  0  0  0  0  0
   25.1180   -9.8670   11.3070 C   0  0  0  0  0  0  0  0  0  0  0  0
  4  5  2  0
  5  6  1  0
  6  7  2  0
  4  9  1  0
  2 10  1  0
 12 13  2  0
 13 14  1  0
  1 17  2  0
  3 17  1  0
  1 18  1  0
 18 19  1  0
 17 20  1  0
  4 20  1  0
 18 21  2  0
 20 21  1  0
  9 22  2  0
  7 22  1  0
 22 23  1  0
 23 24  1  0
  8 24  1  0
  7 25  1  0
  8 25  1  0
 24 26  1  0
  2 26  2  0
 26 27  1  0
 10 28  2  0
 27 28  1  0
 11 28  1  0
 11 29  1  0
 29 30  1  0
 14 30  2  0
 29 31  2  0
 12 31  1  0
 13 32  1  0
 15 32  1  0
 32 33  1  0
 16 33  2  0
 15 34  2  0
 16 34  1  0
M  END
$$$$
7T1D_E7K_A_1007
     RDKit          3D

 34 39  0  0  0  0  0  0  0  0999 V2000
   15.8320  -16.9620   39.9090 N   0  0  0  0  0  0  0  0  0  0  0  0
   19.9490  -17.9340   47.8970 N   0  0  0  0  0  0  0  0  0  0  0  0
   17.8380  -17.8880   41.1540 C   0  0  0  0  0  0  0  0  0  0  0  0
   15.5730  -18.2380   43.3110 C   0  0  0  0  0  0  0  0  0  0  0  0
   14.7200  -19.2510   43.6220 C   0  0  0  0  0  0  0  0  0  0  0  0
   14.8030  -19.9140   44.8390 C   0  0  0  0  0  0  0  0  0  0  0  0
   15.7870  -19.4880   45.7800 C   0  0  0  0  0  0  0  0  0  0  0  0
   16.5650  -19.3180   48.1080 C   0  0  0  0  0  0  0  0  0  0  0  0
   16.5600  -17.8100   44.2090 C   0  0  0  0  0  0  0  0  0  0  0  0
   21.0020  -17.9790   48.8700 C   0  0  0  0  0  0  0  0  0  0  0  0
   21.7660  -18.8950   51.0490 C   0  0  0  0  0  0  0  0  0  0  0  0
   21.3810  -18.2220   54.7140 C   0  0  0  0  0  0  0  0  0  0  0  0
   20.5170  -17.0790   54.7040 C   0  0  0  0  0  0  0  0  0  0  0  0
   20.0190  -16.5510   53.4630 C   0  0  0  0  0  0  0  0  0  0  0  0
   20.0640  -17.0960   57.1350 C   0  0  0  0  0  0  0  0  0  0  0  0
   18.9710  -15.2290   57.2380 C   0  0  0  0  0  0  0  0  0  0  0  0
   16.3890  -17.5120   40.9770 C   0  0  0  0  0  0  0  0  0  0  0  0
   14.5040  -16.8780   40.1960 C   0  0  0  0  0  0  0  0  0  0  0  0
   13.5380  -16.3230   39.2490 C   0  0  0  0  0  0  0  0  0  0  0  0
   15.4400  -17.6740   41.9800 N   0  0  0  0  0  0  0  0  0  0  0  0
   14.2340  -17.2620   41.4640 C   0  0  0  0  0  0  0  0  0  0  0  0
   16.6500  -18.4590   45.4470 C   0  0  0  0  0  0  0  0  0  0  0  0
   17.7230  -17.9810   46.4070 C   0  0  0  0  0  0  0  0  0  0  0  0
   17.8290  -18.8250   47.5520 N   0  0  0  0  0  0  0  0  0  0  0  0
   15.8150  -20.1590   47.1070 C   0  0  0  0  0  0  0  0  0  0  0  0
   18.9680  -18.6560   48.2930 C   0  0  0  0  0  0  0  0  0  0  0  0
   19.2250  -19.3920   49.8210 S   0  0  0  0  0  0  0  0  0  0  0  0
   20.8090  -18.7000   49.8990 C   0  0  0  0  0  0  0  0  0  0  0  0
   21.3080  -18.2470   52.2690 C   0  0  0  0  0  0  0  0  0  0  0  0
   20.4670  -17.1380   52.2620 C   0  0  0  0  0  0  0  0  0  0  0  0
   21.7640  -18.7820   53.4790 C   0  0  0  0  0  0  0  0  0  0  0  0
   20.0350  -16.5080   55.8680 N   0  0  0  0  0  0  0  0  0  0  0  0
   19.3210  -15.3760   55.8910 N   0  0  0  0  0  0  0  0  0  0  0  0
   19.4320  -16.3050   57.9700 C   0  0  0  0  0  0  0  0  0  0  0  0
  4  5  2  0
  5  6  1  0
  6  7  2  0
  4  9  1  0
  2 10  1  0
 12 13  2  0
 13 14  1  0
  1 17  2  0
  3 17  1  0
  1 18  1  0
 18 19  1  0
 17 20  1  0
  4 20  1  0
 18 21  2  0
 20 21  1  0
  9 22  2  0
  7 22  1  0
 22 23  1  0
 23 24  1  0
  8 24  1  0
  7 25  1  0
  8 25  1  0
 24 26  1  0
  2 26  2  0
 26 27  1  0
 10 28  2  0
 27 28  1  0
 11 28  1  0
 11 29  1  0
 29 30  1  0
 14 30  2  0
 29 31  2  0
 12 31  1  0
 13 32  1  0
 15 32  1  0
 32 33  1  0
 16 33  2  0
 15 34  2  0
 16 34  1  0
M  END
$$$$
