7BTT_F8R_A_1501
     RDKit          3D

 73 77  0  0  0  0  0  0  0  0999 V2000
   -0.8120   -2.3035   -0.8651 N   0  0  0  0  0  0  0  0  0  0  0  0
   -1.4836   -2.9356    0.1474 C   0  0  0  0  0  0  0  0  0  0  0  0
   -0.5863   -1.2845    1.7993 C   0  0  0  0  0  0  0  0  0  0  0  0
    0.0412    1.0189    1.3951 C   0  0  0  0  0  0  0  0  0  0  0  0
    0.4373   -1.3853    2.7706 C   0  0  0  0  0  0  0  0  0  0  0  0
    1.6355   -2.8594    4.3975 C   0  0  0  0  0  0  0  0  0  0  0  0
    1.1984    3.0533    1.2885 C   0  0  0  0  0  0  0  0  0  0  0  0
   -0.9155    2.8807   -0.1194 C   0  0  0  0  0  0  0  0  0  0  0  0
    5.1677   -2.8849   -0.8873 C   0  0  0  0  0  0  0  0  0  0  0  0
    4.2371   -1.6706   -0.8093 C   0  0  0  0  0  0  0  0  0  0  0  0
    1.7122   -0.6741   -2.0653 C   0  0  0  0  0  0  0  0  0  0  0  0
    2.1912    0.6253   -1.8140 C   0  0  0  0  0  0  0  0  0  0  0  0
    1.5637    1.7381   -2.3761 C   0  0  0  0  0  0  0  0  0  0  0  0
    0.4537    1.5742   -3.2008 C   0  0  0  0  0  0  0  0  0  0  0  0
   -0.0416    0.2963   -3.4562 C   0  0  0  0  0  0  0  0  0  0  0  0
    0.5672   -0.8311   -2.8881 C   0  0  0  0  0  0  0  0  0  0  0  0
   -0.7676   -2.7966   -2.1348 C   0  0  0  0  0  0  0  0  0  0  0  0
   -0.7774   -0.0753    1.0985 C   0  0  0  0  0  0  0  0  0  0  0  0
    1.0566    0.9052    2.3030 C   0  0  0  0  0  0  0  0  0  0  0  0
    1.2745   -0.2730    3.0154 C   0  0  0  0  0  0  0  0  0  0  0  0
    1.8716    2.1486    2.3444 C   0  0  0  0  0  0  0  0  0  0  0  0
   -2.3575    2.4546   -0.1254 C   0  0  0  0  0  0  0  0  0  0  0  0
   -4.5619    3.1316   -0.8551 C   0  0  0  0  0  0  0  0  0  0  0  0
   -3.4024    4.4454    0.7960 C   0  0  0  0  0  0  0  0  0  0  0  0
   -2.1478   -4.5831   -1.3709 C   0  0  0  0  0  0  0  0  0  0  0  0
   -1.4676   -3.9755   -2.3834 C   0  0  0  0  0  0  0  0  0  0  0  0
   -2.3599   -5.7472   -3.2118 C   0  0  0  0  0  0  0  0  0  0  0  0
   -2.7308   -5.7239   -1.8681 C   0  0  0  0  0  0  0  0  0  0  0  0
    4.1431   -1.1746    0.6406 C   0  0  0  0  0  0  0  0  0  0  0  0
   -0.0105   -2.1183   -3.1465 N   0  0  0  0  0  0  0  0  0  0  0  0
   -1.3922   -2.4319    1.4858 N   0  0  0  0  0  0  0  0  0  0  0  0
    0.0509    2.3018    0.7767 N   0  0  0  0  0  0  0  0  0  0  0  0
   -3.2426    3.6051   -0.4049 N   0  0  0  0  0  0  0  0  0  0  0  0
   -2.1613   -4.0961   -0.1050 N   0  0  0  0  0  0  0  0  0  0  0  0
   -1.5867   -4.6784   -3.5229 N   0  0  0  0  0  0  0  0  0  0  0  0
    0.6124   -2.6064    3.4404 O   0  0  0  0  0  0  0  0  0  0  0  0
   -0.5467    3.7834   -0.9180 O   0  0  0  0  0  0  0  0  0  0  0  0
    1.8290   -2.7436   -0.3405 O   0  0  0  0  0  0  0  0  0  0  0  0
    2.7638   -3.0637   -2.5779 O   0  0  0  0  0  0  0  0  0  0  0  0
    2.6028   -2.0858   -1.4468 S   0  0  0  0  0  6  0  0  0  0  0  0
    2.6354   -2.7243    3.9328 H   0  0  0  0  0  0  0  0  0  0  0  0
    1.5238   -2.1752    5.2650 H   0  0  0  0  0  0  0  0  0  0  0  0
    1.5450   -3.9055    4.7556 H   0  0  0  0  0  0  0  0  0  0  0  0
    1.9036    3.2766    0.4592 H   0  0  0  0  0  0  0  0  0  0  0  0
    0.8537    4.0021    1.7541 H   0  0  0  0  0  0  0  0  0  0  0  0
    6.1624   -2.6346   -0.4612 H   0  0  0  0  0  0  0  0  0  0  0  0
    4.7404   -3.7430   -0.3252 H   0  0  0  0  0  0  0  0  0  0  0  0
    5.3177   -3.1859   -1.9447 H   0  0  0  0  0  0  0  0  0  0  0  0
    4.6728   -0.8678   -1.4407 H   0  0  0  0  0  0  0  0  0  0  0  0
    3.0635    0.7952   -1.2028 H   0  0  0  0  0  0  0  0  0  0  0  0
    1.9455    2.7313   -2.1776 H   0  0  0  0  0  0  0  0  0  0  0  0
   -0.0274    2.4394   -3.6378 H   0  0  0  0  0  0  0  0  0  0  0  0
   -0.9127    0.1811   -4.0882 H   0  0  0  0  0  0  0  0  0  0  0  0
   -1.5301   -0.0200    0.3294 H   0  0  0  0  0  0  0  0  0  0  0  0
    2.0905   -0.3203    3.7233 H   0  0  0  0  0  0  0  0  0  0  0  0
    2.9245    1.9287    2.0671 H   0  0  0  0  0  0  0  0  0  0  0  0
    1.8223    2.6075    3.3545 H   0  0  0  0  0  0  0  0  0  0  0  0
   -2.4606    1.6897   -0.9261 H   0  0  0  0  0  0  0  0  0  0  0  0
   -2.6291    1.9836    0.8454 H   0  0  0  0  0  0  0  0  0  0  0  0
   -4.4607    2.5764   -1.8131 H   0  0  0  0  0  0  0  0  0  0  0  0
   -5.2359    3.9937   -1.0490 H   0  0  0  0  0  0  0  0  0  0  0  0
   -5.0324    2.4639   -0.0978 H   0  0  0  0  0  0  0  0  0  0  0  0
   -4.0128    5.3421    0.5551 H   0  0  0  0  0  0  0  0  0  0  0  0
   -2.4142    4.8087    1.1487 H   0  0  0  0  0  0  0  0  0  0  0  0
   -3.8938    3.8843    1.6209 H   0  0  0  0  0  0  0  0  0  0  0  0
   -2.6376   -6.5151   -3.9212 H   0  0  0  0  0  0  0  0  0  0  0  0
   -3.3320   -6.4486   -1.3349 H   0  0  0  0  0  0  0  0  0  0  0  0
    3.4004   -0.3576    0.7352 H   0  0  0  0  0  0  0  0  0  0  0  0
    3.8376   -1.9992    1.3208 H   0  0  0  0  0  0  0  0  0  0  0  0
    5.1297   -0.7872    0.9727 H   0  0  0  0  0  0  0  0  0  0  0  0
   -0.1138   -2.4119   -4.1436 H   0  0  0  0  0  0  0  0  0  0  0  0
   -1.7350   -3.0359    2.2663 H   0  0  0  0  0  0  0  0  0  0  0  0
   -1.1705   -4.4639   -4.4558 H   0  0  0  0  0  0  0  0  0  0  0  0
  1  2  2  0
  3  5  2  0
  9 10  1  0
 11 12  2  0
 12 13  1  0
 13 14  2  0
 14 15  1  0
 15 16  2  0
 11 16  1  0
  1 17  1  0
  4 18  2  0
  3 18  1  0
  4 19  1  0
 19 20  2  0
  5 20  1  0
  7 21  1  0
 19 21  1  0
  8 22  1  0
 17 26  2  0
 25 26  1  0
 25 28  1  0
 27 28  2  0
 10 29  1  0
 16 30  1  0
 17 30  1  0
  3 31  1  0
  2 31  1  0
  7 32  1  0
  4 32  1  0
  8 32  1  0
 24 33  1  0
 22 33  1  0
 23 33  1  0
  2 34  1  0
 25 34  2  0
 26 35  1  0
 27 35  1  0
  6 36  1  0
  5 36  1  0
  8 37  2  0
 11 40  1  0
 39 40  2  0
 38 40  2  0
 10 40  1  0
  6 41  1  0
  6 42  1  0
  6 43  1  0
  7 44  1  0
  7 45  1  0
  9 46  1  0
  9 47  1  0
  9 48  1  0
 10 49  1  0
 12 50  1  0
 13 51  1  0
 14 52  1  0
 15 53  1  0
 18 54  1  0
 20 55  1  0
 21 56  1  0
 21 57  1  0
 22 58  1  0
 22 59  1  0
 23 60  1  0
 23 61  1  0
 23 62  1  0
 24 63  1  0
 24 64  1  0
 24 65  1  0
 27 66  1  0
 28 67  1  0
 29 68  1  0
 29 69  1  0
 29 70  1  0
 30 71  1  0
 31 72  1  0
 35 73  1  0
M  END
