6TW5_9M2_CCC_501
     RDKit          3D

 59 62  0  0  0  0  0  0  0  0999 V2000
    0.6681    4.1650   -0.2920 C   0  0  0  0  0  0  0  0  0  0  0  0
   -1.0755    0.5724    1.8135 C   0  0  0  0  0  0  0  0  0  0  0  0
   -1.4477   -0.2674    2.8603 C   0  0  0  0  0  0  0  0  0  0  0  0
    0.6928    1.9572    0.7270 C   0  0  0  0  0  0  0  0  0  0  0  0
    0.1879    3.2663    0.6621 C   0  0  0  0  0  0  0  0  0  0  0  0
    0.2363    1.0919    1.8266 C   0  0  0  0  0  0  0  0  0  0  0  0
    1.1128    0.7858    2.8996 C   0  0  0  0  0  0  0  0  0  0  0  0
   -2.4112   -1.6393    4.2926 N   0  0  0  0  0  0  0  0  0  0  0  0
    0.6941   -0.0546    3.9481 C   0  0  0  0  0  0  0  0  0  0  0  0
   -0.5985   -0.5673    3.8904 C   0  0  0  0  0  0  0  0  0  0  0  0
    2.1374    4.6467   -2.1040 F   0  0  0  0  0  0  0  0  0  0  0  0
    1.6631    3.7691   -1.1857 C   0  0  0  0  0  0  0  0  0  0  0  0
    2.1650    2.4666   -1.1404 C   0  0  0  0  0  0  0  0  0  0  0  0
    1.6739    1.5407   -0.2106 C   0  0  0  0  0  0  0  0  0  0  0  0
   -1.1909   -1.4027    4.7626 N   0  0  0  0  0  0  0  0  0  0  0  0
   -2.6021   -0.9680    3.1333 C   0  0  0  0  0  0  0  0  0  0  0  0
   -3.8509   -1.0475    2.2902 C   0  0  0  0  0  0  0  0  0  0  0  0
   -3.8566   -2.1842    1.3420 N   0  0  0  0  0  0  0  0  0  0  0  0
   -3.7935   -3.4875    2.0218 C   0  0  0  0  0  0  0  0  0  0  0  0
   -2.8027   -2.0734    0.3215 C   0  0  0  0  0  0  0  0  0  0  0  0
    2.1872    0.2353   -0.2769 O   0  0  0  0  0  0  0  0  0  0  0  0
    1.4462   -0.9539   -0.0073 C   0  0  0  0  0  0  0  0  0  0  0  0
    2.0213   -2.1133   -0.8166 C   0  0  0  0  0  0  0  0  0  0  0  0
    1.8936   -1.8550   -2.2937 C   0  0  0  0  0  0  0  0  0  0  0  0
    2.8574   -1.3342   -3.1452 C   0  0  0  0  0  0  0  0  0  0  0  0
    4.2676   -0.9901   -2.7905 C   0  0  0  0  0  0  0  0  0  0  0  0
    2.3211   -1.1180   -4.3625 N   0  0  0  0  0  0  0  0  0  0  0  0
    1.0501   -1.4858   -4.3114 N   0  0  0  0  0  0  0  0  0  0  0  0
    0.1326   -1.3626   -5.4385 C   0  0  0  0  0  0  0  0  0  0  0  0
    0.7527   -1.9436   -3.0760 C   0  0  0  0  0  0  0  0  0  0  0  0
   -0.6219   -2.3262   -2.6133 C   0  0  0  0  0  0  0  0  0  0  0  0
    0.2780    5.1741   -0.3275 H   0  0  0  0  0  0  0  0  0  0  0  0
   -1.7599    0.7992    1.0062 H   0  0  0  0  0  0  0  0  0  0  0  0
   -0.5622    3.5992    1.3697 H   0  0  0  0  0  0  0  0  0  0  0  0
    2.1173    1.1903    2.9135 H   0  0  0  0  0  0  0  0  0  0  0  0
   -3.1037   -2.2647    4.7609 H   0  0  0  0  0  0  0  0  0  0  0  0
    1.3590   -0.3012    4.7657 H   0  0  0  0  0  0  0  0  0  0  0  0
    2.9238    2.1637   -1.8510 H   0  0  0  0  0  0  0  0  0  0  0  0
   -3.9824   -0.0959    1.7314 H   0  0  0  0  0  0  0  0  0  0  0  0
   -4.7318   -1.1262    2.9634 H   0  0  0  0  0  0  0  0  0  0  0  0
   -2.7916   -3.6640    2.4707 H   0  0  0  0  0  0  0  0  0  0  0  0
   -4.0026   -4.3002    1.2939 H   0  0  0  0  0  0  0  0  0  0  0  0
   -4.5672   -3.5480    2.8171 H   0  0  0  0  0  0  0  0  0  0  0  0
   -2.8687   -1.0930   -0.1962 H   0  0  0  0  0  0  0  0  0  0  0  0
   -1.7901   -2.1880    0.7662 H   0  0  0  0  0  0  0  0  0  0  0  0
   -2.9413   -2.8614   -0.4493 H   0  0  0  0  0  0  0  0  0  0  0  0
    0.3767   -0.8147   -0.2776 H   0  0  0  0  0  0  0  0  0  0  0  0
    1.5210   -1.2064    1.0699 H   0  0  0  0  0  0  0  0  0  0  0  0
    3.0881   -2.2603   -0.5441 H   0  0  0  0  0  0  0  0  0  0  0  0
    1.4829   -3.0485   -0.5552 H   0  0  0  0  0  0  0  0  0  0  0  0
    4.8188   -0.6562   -3.6946 H   0  0  0  0  0  0  0  0  0  0  0  0
    4.2774   -0.1716   -2.0415 H   0  0  0  0  0  0  0  0  0  0  0  0
    4.7779   -1.8812   -2.3698 H   0  0  0  0  0  0  0  0  0  0  0  0
   -0.2281   -2.3684   -5.7396 H   0  0  0  0  0  0  0  0  0  0  0  0
    0.6476   -0.8938   -6.3038 H   0  0  0  0  0  0  0  0  0  0  0  0
   -0.7327   -0.7286   -5.1517 H   0  0  0  0  0  0  0  0  0  0  0  0
   -1.1797   -1.4121   -2.3226 H   0  0  0  0  0  0  0  0  0  0  0  0
   -0.5676   -3.0129   -1.7441 H   0  0  0  0  0  0  0  0  0  0  0  0
   -1.1708   -2.8447   -3.4260 H   0  0  0  0  0  0  0  0  0  0  0  0
  2  3  1  0
  1  5  2  0
  4  5  1  0
  4  6  1  0
  2  6  2  0
  6  7  1  0
  7  9  2  0
  3 10  1  0
  9 10  1  0
 11 12  1  0
  1 12  1  0
 12 13  2  0
 13 14  1  0
  4 14  2  0
 10 15  2  0
  8 15  1  0
  3 16  2  0
  8 16  1  0
 16 17  1  0
 17 18  1  0
 18 19  1  0
 18 20  1  0
 14 21  1  0
 21 22  1  0
 22 23  1  0
 23 24  1  0
 24 25  1  0
 25 26  1  0
 25 27  2  0
 27 28  1  0
 28 29  1  0
 24 30  2  0
 28 30  1  0
 30 31  1  0
  1 32  1  0
  2 33  1  0
  5 34  1  0
  7 35  1  0
  8 36  1  0
  9 37  1  0
 13 38  1  0
 17 39  1  0
 17 40  1  0
 19 41  1  0
 19 42  1  0
 19 43  1  0
 20 44  1  0
 20 45  1  0
 20 46  1  0
 22 47  1  0
 22 48  1  0
 23 49  1  0
 23 50  1  0
 26 51  1  0
 26 52  1  0
 26 53  1  0
 29 54  1  0
 29 55  1  0
 29 56  1  0
 31 57  1  0
 31 58  1  0
 31 59  1  0
M  END
