6TW5_9M2_CCC_501
     RDKit          3D

 31 34  0  0  0  0  0  0  0  0999 V2000
    1.4200   -8.1960   86.5860 C   0  0  0  0  0  0  0  0  0  0  0  0
    5.1360  -10.2960   87.3730 C   0  0  0  0  0  0  0  0  0  0  0  0
    6.5000  -10.6220   87.4830 C   0  0  0  0  0  0  0  0  0  0  0  0
    3.1710   -8.9970   88.0950 C   0  0  0  0  0  0  0  0  0  0  0  0
    2.7460   -8.6320   86.7880 C   0  0  0  0  0  0  0  0  0  0  0  0
    4.5680   -9.3880   88.2870 C   0  0  0  0  0  0  0  0  0  0  0  0
    5.4210   -8.8310   89.2720 C   0  0  0  0  0  0  0  0  0  0  0  0
    8.5830  -11.4670   87.2330 N   0  0  0  0  0  0  0  0  0  0  0  0
    6.7760   -9.1230   89.3760 C   0  0  0  0  0  0  0  0  0  0  0  0
    7.3550  -10.0590   88.5070 C   0  0  0  0  0  0  0  0  0  0  0  0
   -0.6860   -7.6880   87.4250 F   0  0  0  0  0  0  0  0  0  0  0  0
    0.5510   -8.1350   87.6810 C   0  0  0  0  0  0  0  0  0  0  0  0
    0.9230   -8.4820   88.9650 C   0  0  0  0  0  0  0  0  0  0  0  0
    2.2020   -8.9260   89.2010 C   0  0  0  0  0  0  0  0  0  0  0  0
    8.6240  -10.5770   88.3240 N   0  0  0  0  0  0  0  0  0  0  0  0
    7.3470  -11.5660   86.6920 C   0  0  0  0  0  0  0  0  0  0  0  0
    6.8980  -12.4750   85.5230 C   0  0  0  0  0  0  0  0  0  0  0  0
    7.1160  -11.9470   84.1590 N   0  0  0  0  0  0  0  0  0  0  0  0
    6.3600  -10.6870   83.9050 C   0  0  0  0  0  0  0  0  0  0  0  0
    8.5530  -11.6290   83.9660 C   0  0  0  0  0  0  0  0  0  0  0  0
    2.6670   -9.3020   90.4240 O   0  0  0  0  0  0  0  0  0  0  0  0
    1.6660   -9.2550   91.4660 C   0  0  0  0  0  0  0  0  0  0  0  0
    2.3830   -9.7010   92.6990 C   0  0  0  0  0  0  0  0  0  0  0  0
    2.5790  -11.2030   92.8190 C   0  0  0  0  0  0  0  0  0  0  0  0
    1.6090  -12.3250   93.0720 C   0  0  0  0  0  0  0  0  0  0  0  0
    0.1030  -12.3530   93.1990 C   0  0  0  0  0  0  0  0  0  0  0  0
    2.2740  -13.4760   93.1100 N   0  0  0  0  0  0  0  0  0  0  0  0
    3.6630  -13.1810   92.9340 N   0  0  0  0  0  0  0  0  0  0  0  0
    4.5530  -14.3500   93.0270 C   0  0  0  0  0  0  0  0  0  0  0  0
    3.9090  -11.8830   92.7570 C   0  0  0  0  0  0  0  0  0  0  0  0
    5.2810  -11.2950   92.4780 C   0  0  0  0  0  0  0  0  0  0  0  0
  2  3  1  0
  1  5  2  0
  4  5  1  0
  4  6  1  0
  2  6  2  0
  6  7  1  0
  7  9  2  0
  3 10  1  0
  9 10  1  0
 11 12  1  0
  1 12  1  0
 12 13  2  0
 13 14  1  0
  4 14  2  0
 10 15  2  0
  8 15  1  0
  3 16  2  0
  8 16  1  0
 16 17  1  0
 17 18  1  0
 18 19  1  0
 18 20  1  0
 14 21  1  0
 21 22  1  0
 22 23  1  0
 23 24  1  0
 24 25  1  0
 25 26  1  0
 25 27  2  0
 27 28  1  0
 28 29  1  0
 24 30  2  0
 28 30  1  0
 30 31  1  0
M  END
$$$$
6TW5_9M2_BBB_501
     RDKit          3D

 31 34  0  0  0  0  0  0  0  0999 V2000
   16.9780   23.1670   36.1700 C   0  0  0  0  0  0  0  0  0  0  0  0
   13.3180   22.7700   33.9150 C   0  0  0  0  0  0  0  0  0  0  0  0
   11.9610   22.8010   33.5690 C   0  0  0  0  0  0  0  0  0  0  0  0
   15.2500   24.0620   34.6760 C   0  0  0  0  0  0  0  0  0  0  0  0
   15.6750   23.1450   35.6400 C   0  0  0  0  0  0  0  0  0  0  0  0
   13.8440   24.0180   34.2220 C   0  0  0  0  0  0  0  0  0  0  0  0
   13.1210   25.1960   34.2400 C   0  0  0  0  0  0  0  0  0  0  0  0
    9.8790   22.2240   32.9340 N   0  0  0  0  0  0  0  0  0  0  0  0
   11.7270   25.2330   33.9240 C   0  0  0  0  0  0  0  0  0  0  0  0
   11.1440   23.9940   33.5510 C   0  0  0  0  0  0  0  0  0  0  0  0
   19.1200   24.1090   36.1720 F   0  0  0  0  0  0  0  0  0  0  0  0
   17.8810   24.1120   35.6850 C   0  0  0  0  0  0  0  0  0  0  0  0
   17.5260   25.0240   34.6900 C   0  0  0  0  0  0  0  0  0  0  0  0
   16.2170   25.0510   34.1740 C   0  0  0  0  0  0  0  0  0  0  0  0
    9.8710   23.6010   33.1690 N   0  0  0  0  0  0  0  0  0  0  0  0
   11.0870   21.6800   33.1400 C   0  0  0  0  0  0  0  0  0  0  0  0
   11.4340   20.2310   32.9430 C   0  0  0  0  0  0  0  0  0  0  0  0
   11.2200   19.2630   34.0380 N   0  0  0  0  0  0  0  0  0  0  0  0
   12.0720   19.6820   35.1750 C   0  0  0  0  0  0  0  0  0  0  0  0
    9.7620   19.2370   34.3600 C   0  0  0  0  0  0  0  0  0  0  0  0
   15.8080   25.9040   33.2140 O   0  0  0  0  0  0  0  0  0  0  0  0
   16.8240   26.7560   32.6920 C   0  0  0  0  0  0  0  0  0  0  0  0
   16.1690   27.7750   31.7720 C   0  0  0  0  0  0  0  0  0  0  0  0
   15.8580   27.1970   30.4160 C   0  0  0  0  0  0  0  0  0  0  0  0
   16.7680   26.8740   29.2880 C   0  0  0  0  0  0  0  0  0  0  0  0
   18.2840   27.0410   29.3180 C   0  0  0  0  0  0  0  0  0  0  0  0
   16.0900   26.3880   28.2510 N   0  0  0  0  0  0  0  0  0  0  0  0
   14.7560   26.4080   28.6580 N   0  0  0  0  0  0  0  0  0  0  0  0
   13.7850   25.8480   27.6570 C   0  0  0  0  0  0  0  0  0  0  0  0
   14.5450   26.8260   29.9020 C   0  0  0  0  0  0  0  0  0  0  0  0
   13.2210   26.8660   30.5720 C   0  0  0  0  0  0  0  0  0  0  0  0
  2  3  1  0
  1  5  2  0
  4  5  1  0
  4  6  1  0
  2  6  2  0
  6  7  1  0
  7  9  2  0
  3 10  1  0
  9 10  1  0
 11 12  1  0
  1 12  1  0
 12 13  2  0
 13 14  1  0
  4 14  2  0
 10 15  2  0
  8 15  1  0
  3 16  2  0
  8 16  1  0
 16 17  1  0
 17 18  1  0
 18 19  1  0
 18 20  1  0
 14 21  1  0
 21 22  1  0
 22 23  1  0
 23 24  1  0
 24 25  1  0
 25 26  1  0
 25 27  2  0
 27 28  1  0
 28 29  1  0
 24 30  2  0
 28 30  1  0
 30 31  1  0
M  END
$$$$
6TW5_9M2_AAA_501
     RDKit          3D

 31 34  0  0  0  0  0  0  0  0999 V2000
   22.8210   40.7880   63.6100 C   0  0  0  0  0  0  0  0  0  0  0  0
   26.4180   42.6850   64.9010 C   0  0  0  0  0  0  0  0  0  0  0  0
   27.7870   42.9790   65.0660 C   0  0  0  0  0  0  0  0  0  0  0  0
   24.4840   42.5600   63.3910 C   0  0  0  0  0  0  0  0  0  0  0  0
   24.1230   41.2280   63.7910 C   0  0  0  0  0  0  0  0  0  0  0  0
   25.8960   42.9470   63.6090 C   0  0  0  0  0  0  0  0  0  0  0  0
   26.7300   43.4430   62.5680 C   0  0  0  0  0  0  0  0  0  0  0  0
   29.8510   43.2200   65.8750 N   0  0  0  0  0  0  0  0  0  0  0  0
   28.1030   43.7500   62.7340 C   0  0  0  0  0  0  0  0  0  0  0  0
   28.6430   43.4710   64.0180 C   0  0  0  0  0  0  0  0  0  0  0  0
   20.6820   41.1590   62.7680 F   0  0  0  0  0  0  0  0  0  0  0  0
   21.9220   41.6220   62.9730 C   0  0  0  0  0  0  0  0  0  0  0  0
   22.2560   42.9030   62.5050 C   0  0  0  0  0  0  0  0  0  0  0  0
   23.5190   43.3920   62.7310 C   0  0  0  0  0  0  0  0  0  0  0  0
   29.8860   43.5960   64.5430 N   0  0  0  0  0  0  0  0  0  0  0  0
   28.6570   42.8310   66.2660 C   0  0  0  0  0  0  0  0  0  0  0  0
   28.3260   42.4250   67.7000 C   0  0  0  0  0  0  0  0  0  0  0  0
   28.4290   41.0130   68.0670 N   0  0  0  0  0  0  0  0  0  0  0  0
   27.6790   40.0780   67.2380 C   0  0  0  0  0  0  0  0  0  0  0  0
   29.8580   40.6120   68.0160 C   0  0  0  0  0  0  0  0  0  0  0  0
   23.9230   44.6020   62.3810 O   0  0  0  0  0  0  0  0  0  0  0  0
   22.9270   45.4590   61.8240 C   0  0  0  0  0  0  0  0  0  0  0  0
   23.6010   46.6980   61.2950 C   0  0  0  0  0  0  0  0  0  0  0  0
   23.9360   47.6810   62.3990 C   0  0  0  0  0  0  0  0  0  0  0  0
   23.0390   48.5170   63.1980 C   0  0  0  0  0  0  0  0  0  0  0  0
   21.5550   48.6520   63.0840 C   0  0  0  0  0  0  0  0  0  0  0  0
   23.7400   49.2600   64.0960 N   0  0  0  0  0  0  0  0  0  0  0  0
   25.0620   48.8770   63.8780 N   0  0  0  0  0  0  0  0  0  0  0  0
   26.0280   49.5620   64.7660 C   0  0  0  0  0  0  0  0  0  0  0  0
   25.2650   47.9670   62.9800 C   0  0  0  0  0  0  0  0  0  0  0  0
   26.6150   47.4010   62.6070 C   0  0  0  0  0  0  0  0  0  0  0  0
  2  3  1  0
  1  5  2  0
  4  5  1  0
  4  6  1  0
  2  6  2  0
  6  7  1  0
  7  9  2  0
  3 10  1  0
  9 10  1  0
 11 12  1  0
  1 12  1  0
 12 13  2  0
 13 14  1  0
  4 14  2  0
 10 15  2  0
  8 15  1  0
  3 16  2  0
  8 16  1  0
 16 17  1  0
 17 18  1  0
 18 19  1  0
 18 20  1  0
 14 21  1  0
 21 22  1  0
 22 23  1  0
 23 24  1  0
 24 25  1  0
 25 26  1  0
 25 27  2  0
 27 28  1  0
 28 29  1  0
 24 30  2  0
 28 30  1  0
 30 31  1  0
M  END
$$$$
