6TW5_9M2_CCC_501
     RDKit          3D

 31 34  0  0  0  0  0  0  0  0999 V2000
    1.4200   -8.1960   86.5860 C   0  0  0  0  0  0  0  0  0  0  0  0
    5.1360  -10.2960   87.3730 C   0  0  0  0  0  0  0  0  0  0  0  0
    6.5000  -10.6220   87.4830 C   0  0  0  0  0  0  0  0  0  0  0  0
    3.1710   -8.9970   88.0950 C   0  0  0  0  0  0  0  0  0  0  0  0
    2.7460   -8.6320   86.7880 C   0  0  0  0  0  0  0  0  0  0  0  0
    4.5680   -9.3880   88.2870 C   0  0  0  0  0  0  0  0  0  0  0  0
    5.4210   -8.8310   89.2720 C   0  0  0  0  0  0  0  0  0  0  0  0
    8.5830  -11.4670   87.2330 N   0  0  0  0  0  0  0  0  0  0  0  0
    6.7760   -9.1230   89.3760 C   0  0  0  0  0  0  0  0  0  0  0  0
    7.3550  -10.0590   88.5070 C   0  0  0  0  0  0  0  0  0  0  0  0
   -0.6860   -7.6880   87.4250 F   0  0  0  0  0  0  0  0  0  0  0  0
    0.5510   -8.1350   87.6810 C   0  0  0  0  0  0  0  0  0  0  0  0
    0.9230   -8.4820   88.9650 C   0  0  0  0  0  0  0  0  0  0  0  0
    2.2020   -8.9260   89.2010 C   0  0  0  0  0  0  0  0  0  0  0  0
    8.6240  -10.5770   88.3240 N   0  0  0  0  0  0  0  0  0  0  0  0
    7.3470  -11.5660   86.6920 C   0  0  0  0  0  0  0  0  0  0  0  0
    6.8980  -12.4750   85.5230 C   0  0  0  0  0  0  0  0  0  0  0  0
    7.1160  -11.9470   84.1590 N   0  0  0  0  0  0  0  0  0  0  0  0
    6.3600  -10.6870   83.9050 C   0  0  0  0  0  0  0  0  0  0  0  0
    8.5530  -11.6290   83.9660 C   0  0  0  0  0  0  0  0  0  0  0  0
    2.6670   -9.3020   90.4240 O   0  0  0  0  0  0  0  0  0  0  0  0
    1.6660   -9.2550   91.4660 C   0  0  0  0  0  0  0  0  0  0  0  0
    2.3830   -9.7010   92.6990 C   0  0  0  0  0  0  0  0  0  0  0  0
    2.5790  -11.2030   92.8190 C   0  0  0  0  0  0  0  0  0  0  0  0
    1.6090  -12.3250   93.0720 C   0  0  0  0  0  0  0  0  0  0  0  0
    0.1030  -12.3530   93.1990 C   0  0  0  0  0  0  0  0  0  0  0  0
    2.2740  -13.4760   93.1100 N   0  0  0  0  0  0  0  0  0  0  0  0
    3.6630  -13.1810   92.9340 N   0  0  0  0  0  0  0  0  0  0  0  0
    4.5530  -14.3500   93.0270 C   0  0  0  0  0  0  0  0  0  0  0  0
    3.9090  -11.8830   92.7570 C   0  0  0  0  0  0  0  0  0  0  0  0
    5.2810  -11.2950   92.4780 C   0  0  0  0  0  0  0  0  0  0  0  0
  2  3  1  0
  1  5  2  0
  4  5  1  0
  4  6  1  0
  2  6  2  0
  6  7  1  0
  7  9  2  0
  3 10  1  0
  9 10  1  0
 11 12  1  0
  1 12  1  0
 12 13  2  0
 13 14  1  0
  4 14  2  0
 10 15  2  0
  8 15  1  0
  3 16  2  0
  8 16  1  0
 16 17  1  0
 17 18  1  0
 18 19  1  0
 18 20  1  0
 14 21  1  0
 21 22  1  0
 22 23  1  0
 23 24  1  0
 24 25  1  0
 25 26  1  0
 25 27  2  0
 27 28  1  0
 28 29  1  0
 24 30  2  0
 28 30  1  0
 30 31  1  0
M  END
$$$$
