7ZHP_IQY_A_408
     RDKit          3D

 27 30  0  0  0  0  0  0  0  0999 V2000
   71.3181   38.1751    0.2442 N   0  0  0  0  0  0  0  0  0  0  0  0
   66.8601   35.5441    4.7922 C   0  0  1  0  0  0  0  0  0  0  0  0
   73.6281   38.0627   -0.0107 N   0  0  0  0  0  0  0  0  0  0  0  0
   67.3497   37.4624    3.0025 C   0  0  0  0  0  0  0  0  0  0  0  0
   67.5887   38.4983    2.0279 C   0  0  0  0  0  0  0  0  0  0  0  0
   66.5333   39.3347    1.7028 C   0  0  0  0  0  0  0  0  0  0  0  0
   65.6963   35.8229    5.4825 O   0  0  0  0  0  0  0  0  0  0  0  0
   68.0082   35.5259    5.7608 C   0  0  0  0  0  0  0  0  0  0  0  0
   68.0625   36.8442    6.5069 C   0  0  0  0  0  0  0  0  0  0  0  0
   66.7122   34.1868    4.1413 C   0  0  0  0  0  0  0  0  0  0  0  0
   67.8777   33.7859    3.2997 C   0  0  0  0  0  0  0  0  0  0  0  0
   67.1371   36.5899    3.8073 C   0  0  0  0  0  0  0  0  0  0  0  0
   68.8275   38.6494    1.4403 C   0  0  0  0  0  0  0  0  0  0  0  0
   68.9767   39.6587    0.5213 C   0  0  0  0  0  0  0  0  0  0  0  0
   67.9164   40.5094    0.1859 C   0  0  0  0  0  0  0  0  0  0  0  0
   66.6664   40.3555    0.7802 C   0  0  0  0  0  0  0  0  0  0  0  0
   70.0421   40.0779   -0.2309 C   0  0  0  0  0  0  0  0  0  0  0  0
   71.3589   39.4473   -0.1848 C   0  0  0  0  0  0  0  0  0  0  0  0
   72.5380   40.0855   -0.5467 C   0  0  0  0  0  0  0  0  0  0  0  0
   73.6920   39.3348   -0.4426 C   0  0  0  0  0  0  0  0  0  0  0  0
   72.4669   37.4708    0.3334 C   0  0  0  0  0  0  0  0  0  0  0  0
   72.4909   36.1107    0.7834 N   0  0  0  0  0  0  0  0  0  0  0  0
   72.8496   41.4228   -1.0330 C   0  0  0  0  0  0  0  0  0  0  0  0
   71.7877   42.3632   -1.3562 C   0  0  0  0  0  0  0  0  0  0  0  0
   70.5233   41.9133   -1.9727 C   0  0  0  0  0  0  0  0  0  0  0  0
   69.6486   41.1547   -1.0054 C   0  0  0  0  0  0  0  0  0  0  0  0
   68.3654   41.4036   -0.7440 N   0  0  0  0  0  0  0  0  0  0  0  0
  4  5  1  0
  5  6  2  0
  2  7  1  1
  2  8  1  0
  8  9  1  6
  2 10  1  0
 10 11  1  6
  4 12  3  0
  2 12  1  0
  5 13  1  0
 13 14  2  0
 14 15  1  0
 15 16  2  0
  6 16  1  0
 14 17  1  0
 17 18  1  0
  1 18  2  0
 18 19  1  0
 19 20  2  0
  3 20  1  0
  3 21  2  0
  1 21  1  0
 21 22  1  0
 23 19  1  1
 24 23  1  6
 24 25  1  0
 25 26  1  6
 17 26  2  0
 26 27  1  0
 15 27  1  0
M  END
$$$$
