7VQ9_ISY_B_301
     RDKit          3D

 26 25  0  0  0  0  0  0  0  0999 V2000
   -1.9223    1.8403    0.7083 P   0  0  0  0  0  5  0  0  0  0  0  0
   -0.2395    1.7075    0.4805 O   0  0  0  0  0  0  0  0  0  0  0  0
    0.4564    1.1464    1.9332 P   0  0  2  0  0  5  0  0  0  0  0  0
   -2.5712    0.4068    1.3371 O   0  0  0  0  0  0  0  0  0  0  0  0
   -2.5654    2.1108   -0.6324 O   0  0  0  0  0  0  0  0  0  0  0  0
   -2.2625    3.1352    1.7457 O   0  0  0  0  0  0  0  0  0  0  0  0
   -0.1393    1.8465    3.1352 O   0  0  0  0  0  0  0  0  0  0  0  0
    2.1170    1.4748    1.9045 O   0  0  0  0  0  0  0  0  0  0  0  0
    0.1918   -0.9521    2.1462 S   0  0  0  0  0  0  0  0  0  0  0  0
    0.9552   -1.4058    0.5482 C   0  0  0  0  0  0  0  0  0  0  0  0
   -0.1203   -1.5871   -0.5243 C   0  0  0  0  0  0  0  0  0  0  0  0
    0.5008   -1.9094   -1.8634 C   0  0  0  0  0  0  0  0  0  0  0  0
    0.5613   -0.8643   -2.9452 C   0  0  0  0  0  0  0  0  0  0  0  0
    0.9944   -3.1336   -2.1007 C   0  0  0  0  0  0  0  0  0  0  0  0
   -2.6384    0.5604    2.3131 H   0  0  0  0  0  0  0  0  0  0  0  0
   -3.2473    3.1237    1.8508 H   0  0  0  0  0  0  0  0  0  0  0  0
    2.3313    1.6389    0.9518 H   0  0  0  0  0  0  0  0  0  0  0  0
    1.7029   -0.6522    0.2238 H   0  0  0  0  0  0  0  0  0  0  0  0
    1.4917   -2.3672    0.6940 H   0  0  0  0  0  0  0  0  0  0  0  0
   -0.7228   -0.6600   -0.6019 H   0  0  0  0  0  0  0  0  0  0  0  0
   -0.8155   -2.4028   -0.2276 H   0  0  0  0  0  0  0  0  0  0  0  0
   -0.0190   -1.2041   -3.8289 H   0  0  0  0  0  0  0  0  0  0  0  0
    0.1412    0.1029   -2.5979 H   0  0  0  0  0  0  0  0  0  0  0  0
    1.6172   -0.6957   -3.2452 H   0  0  0  0  0  0  0  0  0  0  0  0
    0.9570   -3.9067   -1.3391 H   0  0  0  0  0  0  0  0  0  0  0  0
    1.4402   -3.3770   -3.0608 H   0  0  0  0  0  0  0  0  0  0  0  0
  1  2  1  0
  3  2  1  6
  1  4  1  0
  1  5  2  0
  1  6  1  0
  3  7  2  0
  3  8  1  0
  3  9  1  0
  9 10  1  0
 10 11  1  0
 11 12  1  0
 12 13  1  0
 12 14  2  0
  4 15  1  0
  6 16  1  0
  8 17  1  0
 10 18  1  0
 10 19  1  0
 11 20  1  0
 11 21  1  0
 13 22  1  0
 13 23  1  0
 13 24  1  0
 14 25  1  0
 14 26  1  0
M  END
