7VQ9_ISY_B_301
     RDKit          3D

 14 13  0  0  0  0  0  0  0  0999 V2000
   27.0190   -4.3240   27.3780 P   0  0  0  0  0  0  0  0  0  0  0  0
   27.0220   -2.9490   28.1560 O   0  0  0  0  0  0  0  0  0  0  0  0
   27.7400   -2.4660   29.4390 P   0  0  2  0  0  0  0  0  0  0  0  0
   28.4010   -4.8000   27.0970 O   0  0  0  0  0  0  0  0  0  0  0  0
   26.1790   -4.1400   26.0990 O   0  0  0  0  0  0  0  0  0  0  0  0
   26.4000   -5.3540   28.2790 O   0  0  0  0  0  0  0  0  0  0  0  0
   28.8600   -3.3730   29.8690 O   0  0  0  0  0  0  0  0  0  0  0  0
   26.6170   -2.0580   30.3710 O   0  0  0  0  0  0  0  0  0  0  0  0
   28.5230   -0.6700   28.7700 S   0  0  0  0  0  0  0  0  0  0  0  0
   27.0040    0.2350   29.0250 C   0  0  0  0  0  0  0  0  0  0  0  0
   27.1220    1.6260   28.6820 C   0  0  0  0  0  0  0  0  0  0  0  0
   28.0470    2.3830   29.5910 C   0  0  0  0  0  0  0  0  0  0  0  0
   29.4320    2.4460   29.1850 C   0  0  0  0  0  0  0  0  0  0  0  0
   27.6010    3.0160   30.6740 C   0  0  0  0  0  0  0  0  0  0  0  0
  1  2  1  0
  2  3  1  0
  1  4  1  0
  1  5  2  0
  1  6  1  0
  3  7  2  0
  3  8  1  1
  3  9  1  0
  9 10  1  0
 10 11  1  0
 11 12  1  0
 12 13  1  0
 12 14  2  0
M  END
$$$$
7VQ9_ISY_A_301
     RDKit          3D

 14 13  0  0  0  0  0  0  0  0999 V2000
   24.6930    5.0700    3.9300 P   0  0  0  0  0  0  0  0  0  0  0  0
   23.5740    4.0950    3.4400 O   0  0  0  0  0  0  0  0  0  0  0  0
   23.2290    3.3200    2.1530 P   0  0  2  0  0  0  0  0  0  0  0  0
   24.4450    5.3630    5.3690 O   0  0  0  0  0  0  0  0  0  0  0  0
   24.5770    6.3340    3.1350 O   0  0  0  0  0  0  0  0  0  0  0  0
   26.0030    4.4030    3.6760 O   0  0  0  0  0  0  0  0  0  0  0  0
   24.4140    3.4050    1.1860 O   0  0  0  0  0  0  0  0  0  0  0  0
   21.8850    3.7270    1.6890 O   0  0  0  0  0  0  0  0  0  0  0  0
   23.1630    1.3320    2.7840 S   0  0  0  0  0  0  0  0  0  0  0  0
   21.3940    1.6390    3.1150 C   0  0  0  0  0  0  0  0  0  0  0  0
   20.6750    0.4500    3.5310 C   0  0  0  0  0  0  0  0  0  0  0  0
   20.6240   -0.6130    2.4710 C   0  0  0  0  0  0  0  0  0  0  0  0
   19.3790   -0.7040    1.7120 C   0  0  0  0  0  0  0  0  0  0  0  0
   21.6540   -1.4330    2.2920 C   0  0  0  0  0  0  0  0  0  0  0  0
  1  2  1  0
  2  3  1  0
  1  4  1  0
  1  5  2  0
  1  6  1  0
  3  7  2  0
  3  8  1  6
  3  9  1  0
  9 10  1  0
 10 11  1  0
 11 12  1  0
 12 13  1  0
 12 14  2  0
M  END
$$$$
