
     RDKit          3D

  8  8  0  0  0  0  0  0  0  0999 V2000
   14.5504   31.0989   74.9286 C   0  0  0  0  0  0  0  0  0  0  0  0
   14.6308   32.4804   74.7323 C   0  0  0  0  0  0  0  0  0  0  0  0
   15.8457   33.1234   74.9401 C   0  0  0  0  0  0  0  0  0  0  0  0
   15.9890   34.4724   74.7649 O   0  0  0  0  0  0  0  0  0  0  0  0
   16.9672   32.3991   75.3388 C   0  0  0  0  0  0  0  0  0  0  0  0
   18.1560   33.0401   75.5403 O   0  0  0  0  0  0  0  0  0  0  0  0
   16.8945   31.0279   75.5354 C   0  0  0  0  0  0  0  0  0  0  0  0
   15.6787   30.3748   75.3289 C   0  0  0  0  0  0  0  0  0  0  0  0
  1  2  4  0
  2  3  4  0
  3  4  1  0
  3  5  4  0
  5  6  1  0
  5  7  4  0
  1  8  4  0
  7  8  4  0
M  END
