7VC5_9SF_A_902
     RDKit          3D

 41 43  0  0  0  0  0  0  0  0999 V2000
    0.6499   -0.0269    0.2215 N   0  0  0  0  0  0  0  0  0  0  0  0
   -0.0155   -0.3364   -0.9195 C   0  0  0  0  0  0  0  0  0  0  0  0
    2.2973   -3.2046    1.0281 C   0  0  0  0  0  0  0  0  0  0  0  0
    2.9689   -2.8489    2.2022 C   0  0  0  0  0  0  0  0  0  0  0  0
    2.8621   -1.5502    2.7077 C   0  0  0  0  0  0  0  0  0  0  0  0
    2.0830   -0.6001    2.0417 C   0  0  0  0  0  0  0  0  0  0  0  0
    1.5108   -2.2542    0.3501 C   0  0  0  0  0  0  0  0  0  0  0  0
   -0.6926   -1.9014   -2.6799 C   0  0  0  0  0  0  0  0  0  0  0  0
    1.4527   -4.4215   -3.1493 C   0  0  1  0  0  0  0  0  0  0  0  0
    0.2401   -2.2804   -3.8026 C   0  0  0  0  0  0  0  0  0  0  0  0
    1.5753   -2.9308   -3.5311 C   0  0  0  0  0  0  0  0  0  0  0  0
    2.5240   -5.3065   -3.8504 C   0  0  1  0  0  0  0  0  0  0  0  0
    0.8140   -2.5582   -0.8327 C   0  0  0  0  0  0  0  0  0  0  0  0
    3.9359   -5.0437   -3.2913 C   0  0  0  0  0  0  0  0  0  0  0  0
    3.9462   -4.7256   -1.7859 C   0  0  0  0  0  0  0  0  0  0  0  0
    2.6620   -5.1883   -1.0966 C   0  0  0  0  0  0  0  0  0  0  0  0
    1.4075   -0.9474    0.8658 C   0  0  0  0  0  0  0  0  0  0  0  0
    1.4741   -4.5338   -1.6702 N   0  0  0  0  0  0  0  0  0  0  0  0
    0.0630   -1.5925   -1.4547 N   0  0  0  0  0  4  0  0  0  0  0  0
    0.8788   -3.7221   -1.3196 O   0  0  0  0  0  0  0  0  0  0  0  0
   -0.1060   -2.0859   -4.9584 O   0  0  0  0  0  0  0  0  0  0  0  0
    2.2043   -6.6648   -3.6815 O   0  0  0  0  0  0  0  0  0  0  0  0
   -0.6136    0.4304   -1.3956 H   0  0  0  0  0  0  0  0  0  0  0  0
    2.3944   -4.2166    0.6553 H   0  0  0  0  0  0  0  0  0  0  0  0
    3.5731   -3.5815    2.7215 H   0  0  0  0  0  0  0  0  0  0  0  0
    3.3837   -1.2799    3.6168 H   0  0  0  0  0  0  0  0  0  0  0  0
    2.0050    0.4037    2.4407 H   0  0  0  0  0  0  0  0  0  0  0  0
   -1.4148   -2.7293   -2.5099 H   0  0  0  0  0  0  0  0  0  0  0  0
   -1.3058   -1.0207   -2.9734 H   0  0  0  0  0  0  0  0  0  0  0  0
    0.4564   -4.7651   -3.5088 H   0  0  0  0  0  0  0  0  0  0  0  0
    2.2315   -2.8176   -4.4200 H   0  0  0  0  0  0  0  0  0  0  0  0
    2.0736   -2.3827   -2.7029 H   0  0  0  0  0  0  0  0  0  0  0  0
    2.5452   -5.0864   -4.9428 H   0  0  0  0  0  0  0  0  0  0  0  0
    4.5779   -5.9305   -3.4889 H   0  0  0  0  0  0  0  0  0  0  0  0
    4.3943   -4.1911   -3.8388 H   0  0  0  0  0  0  0  0  0  0  0  0
    4.8201   -5.2176   -1.3065 H   0  0  0  0  0  0  0  0  0  0  0  0
    4.0577   -3.6297   -1.6343 H   0  0  0  0  0  0  0  0  0  0  0  0
    2.7236   -4.9302   -0.0178 H   0  0  0  0  0  0  0  0  0  0  0  0
    2.5699   -6.2951   -1.1667 H   0  0  0  0  0  0  0  0  0  0  0  0
    0.6308   -5.0675   -1.3529 H   0  0  0  0  0  0  0  0  0  0  0  0
    1.4409   -6.8595   -4.2860 H   0  0  0  0  0  0  0  0  0  0  0  0
  1  2  4  0
  3  4  4  0
  4  5  4  0
  5  6  4  0
  3  7  4  0
  8 10  1  0
  9 11  1  0
 10 11  1  0
  9 12  1  0
  7 13  4  0
 12 14  1  0
 14 15  1  0
 15 16  1  0
  1 17  4  0
  7 17  4  0
  6 17  4  0
 16 18  1  0
  9 18  1  0
  8 19  1  0
  2 19  4  0
 13 19  4  0
 13 20  2  0
 10 21  2  0
 12 22  1  0
  2 23  1  0
  3 24  1  0
  4 25  1  0
  5 26  1  0
  6 27  1  0
  8 28  1  0
  8 29  1  0
  9 30  1  1
 11 31  1  0
 11 32  1  0
 12 33  1  1
 14 34  1  0
 14 35  1  0
 15 36  1  0
 15 37  1  0
 16 38  1  0
 16 39  1  0
 18 40  1  0
 22 41  1  0
M  CHG  1  19   1
M  END
