7SUC_COM_a_604
     RDKit          3D

 13 12  0  0  0  0  0  0  0  0999 V2000
   24.7516   38.1136  -33.8403 C   0  0  1  0  0  0  0  0  0  0  0  0
   24.7124   38.1451  -32.3155 C   0  0  1  0  0  0  0  0  0  0  0  0
   26.4367   38.4648  -34.4261 S   0  0  0  0  0  0  0  0  0  0  0  0
   23.5906   36.9100  -31.6806 S   0  0  1  0  0  6  0  0  0  0  0  0
   24.3762   35.6975  -31.2682 O   0  0  0  0  0  0  0  0  0  0  0  0
   22.8585   37.4489  -30.4830 O   0  0  0  0  0  0  0  0  0  0  0  0
   22.4864   36.4682  -32.8702 O   0  0  0  0  0  0  0  0  0  0  0  0
   24.4476   37.1108  -34.2082 H   0  0  0  0  0  0  0  0  0  0  0  0
   24.0612   38.8787  -34.2549 H   0  0  0  0  0  0  0  0  0  0  0  0
   25.7276   37.9484  -31.9100 H   0  0  0  0  0  0  0  0  0  0  0  0
   24.3757   39.1454  -31.9688 H   0  0  0  0  0  0  0  0  0  0  0  0
   26.8850   38.7998  -33.1343 H   0  0  0  0  0  0  0  0  0  0  0  0
   23.0039   35.9233  -33.5154 H   0  0  0  0  0  0  0  0  0  0  0  0
  1  2  1  0
  1  3  1  0
  2  4  1  0
  4  5  2  0
  4  6  2  0
  4  7  1  6
  1  8  1  6
  1  9  1  0
  2 10  1  1
  2 11  1  0
  3 12  1  0
  7 13  1  0
M  END
