7O0N_CDP_B_304
     RDKit          3D

 40 41  0  0  0  0  0  0  0  0999 V2000
   -0.1874    6.0715    1.6800 O   0  0  0  0  0  0  0  0  0  0  0  0
   -0.1957    4.8151    2.8158 P   0  0  0  0  0  5  0  0  0  0  0  0
   -0.3509    5.4135    4.1950 O   0  0  0  0  0  0  0  0  0  0  0  0
   -1.5059    3.7784    2.5309 O   0  0  0  0  0  0  0  0  0  0  0  0
    1.2810    3.9702    2.7617 O   0  0  0  0  0  0  0  0  0  0  0  0
    1.3407    3.1117    1.2931 P   0  0  2  0  0  5  0  0  0  0  0  0
    2.7112    2.4820    1.1795 O   0  0  0  0  0  0  0  0  0  0  0  0
    1.1178    4.1592   -0.0216 O   0  0  0  0  0  0  0  0  0  0  0  0
    0.1508    1.8874    1.2975 O   0  0  0  0  0  0  0  0  0  0  0  0
    0.2846    1.1225    0.1222 C   0  0  0  0  0  0  0  0  0  0  0  0
   -0.8150    0.0574    0.0810 C   0  0  1  0  0  0  0  0  0  0  0  0
   -0.7037   -0.6926   -1.1037 O   0  0  0  0  0  0  0  0  0  0  0  0
   -0.7280   -0.9141    1.2514 C   0  0  1  0  0  0  0  0  0  0  0  0
   -1.4528   -0.4325    2.3543 O   0  0  0  0  0  0  0  0  0  0  0  0
   -1.3148   -2.1899    0.6810 C   0  0  1  0  0  0  0  0  0  0  0  0
   -2.6380   -2.3774    1.1167 O   0  0  0  0  0  0  0  0  0  0  0  0
   -1.2776   -1.9547   -0.8378 C   0  0  2  0  0  0  0  0  0  0  0  0
   -0.5140   -3.0201   -1.5199 N   0  0  0  0  0  0  0  0  0  0  0  0
    0.8579   -3.0834   -1.4526 C   0  0  0  0  0  0  0  0  0  0  0  0
    1.5150   -2.2196   -0.8120 O   0  0  0  0  0  0  0  0  0  0  0  0
    1.5282   -4.0884   -2.0746 N   0  0  0  0  0  0  0  0  0  0  0  0
    0.8746   -5.0560   -2.7650 C   0  0  0  0  0  0  0  0  0  0  0  0
    1.6143   -6.0954   -3.4061 N   0  0  0  0  0  0  0  0  0  0  0  0
   -0.5164   -5.0282   -2.8348 C   0  0  0  0  0  0  0  0  0  0  0  0
   -1.1971   -3.9950   -2.1945 C   0  0  0  0  0  0  0  0  0  0  0  0
   -1.0829    6.4878    1.7555 H   0  0  0  0  0  0  0  0  0  0  0  0
   -1.7646    3.9413    1.5889 H   0  0  0  0  0  0  0  0  0  0  0  0
    0.1444    4.1462   -0.2027 H   0  0  0  0  0  0  0  0  0  0  0  0
    1.2767    0.6173    0.0871 H   0  0  0  0  0  0  0  0  0  0  0  0
    0.1701    1.7625   -0.7816 H   0  0  0  0  0  0  0  0  0  0  0  0
   -1.8062    0.5682    0.0830 H   0  0  0  0  0  0  0  0  0  0  0  0
    0.3385   -1.0878    1.5317 H   0  0  0  0  0  0  0  0  0  0  0  0
   -1.2095   -1.0108    3.1235 H   0  0  0  0  0  0  0  0  0  0  0  0
   -0.6869   -3.0588    0.9900 H   0  0  0  0  0  0  0  0  0  0  0  0
   -2.8927   -3.2994    0.8509 H   0  0  0  0  0  0  0  0  0  0  0  0
   -2.3197   -1.9208   -1.2335 H   0  0  0  0  0  0  0  0  0  0  0  0
    1.1281   -6.8500   -3.9400 H   0  0  0  0  0  0  0  0  0  0  0  0
    2.6567   -6.1117   -3.3476 H   0  0  0  0  0  0  0  0  0  0  0  0
   -1.0636   -5.7928   -3.3717 H   0  0  0  0  0  0  0  0  0  0  0  0
   -2.2796   -3.9815   -2.2426 H   0  0  0  0  0  0  0  0  0  0  0  0
  1  2  1  0
  2  3  2  0
  2  4  1  0
  2  5  1  0
  6  5  1  1
  6  7  2  0
  6  8  1  0
  6  9  1  0
  9 10  1  0
 11 10  1  0
 11 12  1  0
 11 13  1  0
 13 14  1  0
 13 15  1  0
 15 16  1  0
 12 17  1  0
 15 17  1  0
 17 18  1  0
 18 19  1  0
 19 20  2  0
 19 21  1  0
 21 22  2  0
 22 23  1  0
 22 24  1  0
 18 25  1  0
 24 25  2  0
  1 26  1  0
  4 27  1  0
  8 28  1  0
 10 29  1  0
 10 30  1  0
 11 31  1  6
 13 32  1  1
 14 33  1  0
 15 34  1  6
 16 35  1  0
 17 36  1  6
 23 37  1  0
 23 38  1  0
 24 39  1  0
 25 40  1  0
M  END
