7RZL_NPO_A_301
     RDKit          3D

 15 15  0  0  0  0  0  0  0  0999 V2000
   24.8276    0.0835   55.1467 C   0  0  0  0  0  0  0  0  0  0  0  0
   24.0904   -0.9882   54.6081 C   0  0  0  0  0  0  0  0  0  0  0  0
   22.7438   -1.1609   54.9424 C   0  0  0  0  0  0  0  0  0  0  0  0
   22.1152   -0.2671   55.8184 C   0  0  0  0  0  0  0  0  0  0  0  0
   22.8400    0.7995   56.3575 C   0  0  0  0  0  0  0  0  0  0  0  0
   24.1869    0.9757   56.0255 C   0  0  0  0  0  0  0  0  0  0  0  0
   20.7741   -0.4296   56.1584 O   0  0  0  0  0  0  0  0  0  0  0  0
   26.2140    0.2665   54.8061 N   0  0  0  0  0  4  0  0  0  0  0  0
   26.9314    1.3153   55.3347 O   0  0  0  0  0  1  0  0  0  0  0  0
   26.7879   -0.5223   54.0267 O   0  0  0  0  0  0  0  0  0  0  0  0
   24.5545   -1.6918   53.9290 H   0  0  0  0  0  0  0  0  0  0  0  0
   22.1902   -1.9900   54.5201 H   0  0  0  0  0  0  0  0  0  0  0  0
   22.3589    1.4935   57.0350 H   0  0  0  0  0  0  0  0  0  0  0  0
   24.7260    1.8094   56.4564 H   0  0  0  0  0  0  0  0  0  0  0  0
   20.2218   -1.1925   55.7844 H   0  0  0  0  0  0  0  0  0  0  0  0
  1  2  2  0
  2  3  1  0
  3  4  2  0
  4  5  1  0
  1  6  1  0
  5  6  2  0
  4  7  1  0
  1  8  1  0
  8  9  1  0
  8 10  2  0
  2 11  1  0
  3 12  1  0
  5 13  1  0
  6 14  1  0
  7 15  1  0
M  CHG  2   8   1   9  -1
M  END
