7RWS_4UR_A_401
     RDKit          3D

 69 75  0  0  0  0  0  0  0  0999 V2000
   -2.7011   -2.4862   -1.9893 C   0  0  2  0  0  0  0  0  0  0  0  0
   -1.3056   -2.5511   -2.6539 C   0  0  0  0  0  0  0  0  0  0  0  0
    1.8076    0.4553   -1.4102 C   0  0  1  0  0  0  0  0  0  0  0  0
    1.8784    7.8659   -2.5802 N   0  0  0  0  0  0  0  0  0  0  0  0
    2.3009    7.1271   -1.4337 C   0  0  0  0  0  0  0  0  0  0  0  0
    2.1057    5.7725   -1.3928 N   0  0  0  0  0  0  0  0  0  0  0  0
    2.5094    5.1010   -0.2869 C   0  0  0  0  0  0  0  0  0  0  0  0
    3.0830    5.7166    0.7702 C   0  0  0  0  0  0  0  0  0  0  0  0
    3.3388    4.8328    1.7538 N   0  0  0  0  0  0  0  0  0  0  0  0
    2.8864    3.6612    1.2278 C   0  0  0  0  0  0  0  0  0  0  0  0
    2.3769    3.7943   -0.0262 N   0  0  0  0  0  0  0  0  0  0  0  0
    1.7367    2.7696   -0.8532 C   0  0  2  0  0  0  0  0  0  0  0  0
    0.6732    2.1855   -0.1459 O   0  0  0  0  0  0  0  0  0  0  0  0
    0.5453    0.8569   -0.6101 C   0  0  2  0  0  0  0  0  0  0  0  0
    0.3079   -0.0750    0.5880 C   0  0  0  0  0  0  0  0  0  0  0  0
   -0.9610    0.1945    1.1483 O   0  0  0  0  0  0  0  0  0  0  0  0
   -1.4043   -1.0505    2.2435 P   0  0  1  0  0  5  0  0  0  0  0  0
   -0.2217   -1.9206    2.6192 O   0  0  0  0  0  0  0  0  0  0  0  0
   -2.0016   -0.3227    3.6492 O   0  0  0  0  0  0  0  0  0  0  0  0
   -2.6481   -2.0322    1.5888 O   0  0  0  0  0  0  0  0  0  0  0  0
   -2.2602   -2.4748    0.3050 C   0  0  2  0  0  0  0  0  0  0  0  0
   -2.7184   -1.5447   -0.7885 C   0  0  2  0  0  0  0  0  0  0  0  0
   -4.0348   -1.1037   -0.5574 O   0  0  0  0  0  0  0  0  0  0  0  0
   -0.8098   -1.2440   -2.8653 O   0  0  0  0  0  0  0  0  0  0  0  0
    0.8846   -1.2853   -3.0852 P   0  0  2  0  0  5  0  0  0  0  0  0
    1.1685   -1.6465   -4.5257 O   0  0  0  0  0  0  0  0  0  0  0  0
    1.6247   -2.4379   -2.0808 O   0  0  0  0  0  0  0  0  0  0  0  0
    1.5144    0.2820   -2.7883 O   0  0  0  0  0  0  0  0  0  0  0  0
    2.7120    1.6565   -1.2120 C   0  0  2  0  0  0  0  0  0  0  0  0
    3.5113    1.9544   -2.3325 O   0  0  0  0  0  0  0  0  0  0  0  0
   -3.0609   -3.7761   -1.5245 O   0  0  0  0  0  0  0  0  0  0  0  0
   -2.9701   -3.7575   -0.1080 C   0  0  1  0  0  0  0  0  0  0  0  0
   -2.2420   -4.9321    0.3762 N   0  0  0  0  0  0  0  0  0  0  0  0
   -1.3073   -5.6749   -0.2753 C   0  0  0  0  0  0  0  0  0  0  0  0
   -0.7572   -6.6516    0.4989 N   0  0  0  0  0  0  0  0  0  0  0  0
   -1.3839   -6.4816    1.6783 C   0  0  0  0  0  0  0  0  0  0  0  0
   -1.2344   -7.1859    2.8674 C   0  0  0  0  0  0  0  0  0  0  0  0
   -0.3252   -8.2823    2.9839 N   0  0  0  0  0  0  0  0  0  0  0  0
   -1.9996   -6.7995    3.9320 N   0  0  0  0  0  0  0  0  0  0  0  0
   -2.8806   -5.7516    3.8362 C   0  0  0  0  0  0  0  0  0  0  0  0
   -3.0181   -5.0664    2.6613 N   0  0  0  0  0  0  0  0  0  0  0  0
   -2.2614   -5.4553    1.6075 C   0  0  0  0  0  0  0  0  0  0  0  0
    3.2812    7.0890    0.7464 C   0  0  0  0  0  0  0  0  0  0  0  0
    3.8012    7.6887    1.7241 O   0  0  0  0  0  0  0  0  0  0  0  0
    2.8865    7.7755   -0.3700 N   0  0  0  0  0  0  0  0  0  0  0  0
   -3.4404   -2.1462   -2.7475 H   0  0  0  0  0  0  0  0  0  0  0  0
   -1.3942   -3.0767   -3.6291 H   0  0  0  0  0  0  0  0  0  0  0  0
   -0.6495   -3.1554   -1.9925 H   0  0  0  0  0  0  0  0  0  0  0  0
    2.3378   -0.4238   -0.9799 H   0  0  0  0  0  0  0  0  0  0  0  0
    1.4571    7.3746   -3.4013 H   0  0  0  0  0  0  0  0  0  0  0  0
    1.9663    8.9071   -2.6054 H   0  0  0  0  0  0  0  0  0  0  0  0
    2.9168    2.7224    1.7669 H   0  0  0  0  0  0  0  0  0  0  0  0
    1.3202    3.2364   -1.7748 H   0  0  0  0  0  0  0  0  0  0  0  0
   -0.3434    0.8176   -1.2748 H   0  0  0  0  0  0  0  0  0  0  0  0
    1.1015    0.0949    1.3498 H   0  0  0  0  0  0  0  0  0  0  0  0
    0.3802   -1.1181    0.2173 H   0  0  0  0  0  0  0  0  0  0  0  0
   -1.2253    0.1533    4.0389 H   0  0  0  0  0  0  0  0  0  0  0  0
   -1.1669   -2.6736    0.2300 H   0  0  0  0  0  0  0  0  0  0  0  0
   -2.0503   -0.6730   -0.9186 H   0  0  0  0  0  0  0  0  0  0  0  0
   -3.9748   -0.3327    0.0654 H   0  0  0  0  0  0  0  0  0  0  0  0
    2.5543   -2.5107   -2.4172 H   0  0  0  0  0  0  0  0  0  0  0  0
    3.3842    1.4547   -0.3489 H   0  0  0  0  0  0  0  0  0  0  0  0
    2.9281    2.2943   -3.0589 H   0  0  0  0  0  0  0  0  0  0  0  0
   -4.0039   -3.7730    0.3064 H   0  0  0  0  0  0  0  0  0  0  0  0
   -1.0193   -5.5118   -1.3059 H   0  0  0  0  0  0  0  0  0  0  0  0
    0.2795   -8.5644    2.1816 H   0  0  0  0  0  0  0  0  0  0  0  0
   -0.2112   -8.7750    3.8971 H   0  0  0  0  0  0  0  0  0  0  0  0
   -3.4743   -5.4686    4.6948 H   0  0  0  0  0  0  0  0  0  0  0  0
    3.0213    8.8111   -0.4086 H   0  0  0  0  0  0  0  0  0  0  0  0
  1  2  1  0
  4  5  1  0
  5  6  2  0
  6  7  1  0
  7  8  2  0
  8  9  1  0
  9 10  2  0
  7 11  1  0
 10 11  1  0
 12 11  1  0
 12 13  1  0
  3 14  1  0
 13 14  1  0
 14 15  1  0
 15 16  1  0
 16 17  1  0
 17 18  2  0
 17 19  1  1
 17 20  1  0
 21 20  1  0
  1 22  1  0
 21 22  1  0
 22 23  1  0
  2 24  1  0
 24 25  1  0
 25 26  2  0
 25 27  1  1
 25 28  1  0
  3 28  1  0
  3 29  1  0
 12 29  1  0
 29 30  1  0
  1 31  1  0
 31 32  1  0
 21 32  1  0
 32 33  1  0
 33 34  1  0
 34 35  2  0
 35 36  1  0
 36 37  1  0
 37 38  1  0
 37 39  2  0
 39 40  1  0
 40 41  2  0
 36 42  2  0
 33 42  1  0
 41 42  1  0
  8 43  1  0
 43 44  2  0
  5 45  1  0
 43 45  1  0
  1 46  1  6
  2 47  1  0
  2 48  1  0
  3 49  1  1
  4 50  1  0
  4 51  1  0
 10 52  1  0
 12 53  1  6
 14 54  1  6
 15 55  1  0
 15 56  1  0
 19 57  1  0
 21 58  1  1
 22 59  1  6
 23 60  1  0
 27 61  1  0
 29 62  1  1
 30 63  1  0
 32 64  1  1
 34 65  1  0
 38 66  1  0
 38 67  1  0
 40 68  1  0
 45 69  1  0
M  END
