7POM_7VZ_C_302
     RDKit          3D

 22 23  0  0  0  0  0  0  0  0999 V2000
  -42.6480   19.1250  -64.7680 Cl  0  0  0  0  0  0  0  0  0  0  0  0
  -42.5560   20.1400  -63.2930 C   0  0  0  0  0  0  0  0  0  0  0  0
  -43.3680   21.3670  -63.2010 C   0  0  0  0  0  0  0  0  0  0  0  0
  -44.2520   21.7300  -64.3270 C   0  0  0  0  0  0  0  0  0  0  0  0
  -45.3000   22.6720  -64.1380 O   0  0  0  0  0  0  0  0  0  0  0  0
  -45.8440   23.3560  -65.2570 C   0  0  0  0  0  0  0  0  0  0  0  0
  -44.1280   21.2060  -65.4030 O   0  0  0  0  0  0  0  0  0  0  0  0
  -41.7280   19.7790  -62.2430 C   0  0  0  0  0  0  0  0  0  0  0  0
  -41.6590   20.5550  -61.1010 C   0  0  0  0  0  0  0  0  0  0  0  0
  -42.5050   21.8100  -61.0100 C   0  0  0  0  0  0  0  0  0  0  0  0
  -42.4700   22.7750  -59.7010 S   0  0  0  0  0  0  0  0  0  0  0  0
  -41.1410   23.2230  -59.4060 O   0  0  0  0  0  0  0  0  0  0  0  0
  -43.2640   24.1450  -60.0740 N   0  0  0  0  0  0  0  0  0  0  0  0
  -43.1290   22.1180  -58.6090 O   0  0  0  0  0  0  0  0  0  0  0  0
  -43.3130   22.1470  -62.0770 C   0  0  0  0  0  0  0  0  0  0  0  0
  -40.6380   20.1360  -59.8010 S   0  0  0  0  0  0  0  0  0  0  0  0
  -40.5880   18.3940  -59.4150 C   0  0  0  0  0  0  0  0  0  0  0  0
  -41.4960   17.4320  -60.2120 C   0  0  0  0  0  0  0  0  0  0  0  0
  -41.5450   16.0370  -59.5570 C   0  0  0  0  0  0  0  0  0  0  0  0
  -40.1210   15.5590  -59.2100 C   0  0  0  0  0  0  0  0  0  0  0  0
  -39.0720   16.6070  -58.7280 C   0  0  0  0  0  0  0  0  0  0  0  0
  -39.1450   17.9280  -59.4750 C   0  0  0  0  0  0  0  0  0  0  0  0
  1  2  1  0
  2  3  2  0
  3  4  1  0
  4  5  1  0
  5  6  1  0
  4  7  2  0
  2  8  1  0
  8  9  2  0
  9 10  1  0
 10 11  1  0
 11 12  2  0
 11 13  1  0
 11 14  2  0
 10 15  2  0
  3 15  1  0
  9 16  1  0
 16 17  1  0
 17 18  1  0
 18 19  1  0
 19 20  1  0
 20 21  1  0
 21 22  1  0
 17 22  1  0
M  END
$$$$
