7POM_7VZ_C_302
     RDKit          3D

 40 41  0  0  0  0  0  0  0  0999 V2000
  -41.2582   18.6030  -63.7114 Cl  0  0  0  0  0  0  0  0  0  0  0  0
  -41.6773   19.8605  -62.5041 C   0  0  0  0  0  0  0  0  0  0  0  0
  -42.4051   21.0686  -62.9329 C   0  0  0  0  0  0  0  0  0  0  0  0
  -42.7660   21.2229  -64.3567 C   0  0  0  0  0  0  0  0  0  0  0  0
  -43.6994   22.2192  -64.7536 O   0  0  0  0  0  0  0  0  0  0  0  0
  -45.0728   21.8852  -64.8891 C   0  0  0  0  0  0  0  0  0  0  0  0
  -42.2472   20.5421  -65.2023 O   0  0  0  0  0  0  0  0  0  0  0  0
  -41.3227   19.7029  -61.1745 C   0  0  0  0  0  0  0  0  0  0  0  0
  -41.6378   20.6730  -60.2413 C   0  0  0  0  0  0  0  0  0  0  0  0
  -42.3775   21.9174  -60.6923 C   0  0  0  0  0  0  0  0  0  0  0  0
  -42.7876   23.0967  -59.6497 S   0  0  2  0  0  6  0  0  0  0  0  0
  -43.6866   22.6237  -58.6387 O   0  0  0  0  0  0  0  0  0  0  0  0
  -43.6687   24.1946  -60.4650 N   0  0  0  0  0  0  0  0  0  0  0  0
  -41.5975   23.7155  -59.1407 O   0  0  0  0  0  0  0  0  0  0  0  0
  -42.7245   22.0402  -62.0225 C   0  0  0  0  0  0  0  0  0  0  0  0
  -41.2214   20.4947  -58.5973 S   0  0  0  0  0  0  0  0  0  0  0  0
  -40.4093   18.9584  -58.1893 C   0  0  2  0  0  0  0  0  0  0  0  0
  -39.7957   18.7956  -56.7815 C   0  0  0  0  0  0  0  0  0  0  0  0
  -39.4081   17.3289  -56.5060 C   0  0  0  0  0  0  0  0  0  0  0  0
  -38.6270   16.7487  -57.7018 C   0  0  0  0  0  0  0  0  0  0  0  0
  -39.0220   17.1900  -59.1441 C   0  0  0  0  0  0  0  0  0  0  0  0
  -39.3693   18.6649  -59.2548 C   0  0  0  0  0  0  0  0  0  0  0  0
  -45.6223   22.7517  -65.1925 H   0  0  0  0  0  0  0  0  0  0  0  0
  -45.1821   21.1173  -65.6262 H   0  0  0  0  0  0  0  0  0  0  0  0
  -45.4489   21.5348  -63.9507 H   0  0  0  0  0  0  0  0  0  0  0  0
  -40.8182   18.8530  -60.8775 H   0  0  0  0  0  0  0  0  0  0  0  0
  -44.5140   23.7521  -60.8256 H   0  0  0  0  0  0  0  0  0  0  0  0
  -43.9251   24.9577  -59.8387 H   0  0  0  0  0  0  0  0  0  0  0  0
  -43.2345   22.8804  -62.3370 H   0  0  0  0  0  0  0  0  0  0  0  0
  -41.2063   18.2450  -58.1651 H   0  0  0  0  0  0  0  0  0  0  0  0
  -38.9204   19.4069  -56.7099 H   0  0  0  0  0  0  0  0  0  0  0  0
  -40.5256   19.0939  -56.0582 H   0  0  0  0  0  0  0  0  0  0  0  0
  -38.7962   17.2840  -55.6294 H   0  0  0  0  0  0  0  0  0  0  0  0
  -40.2992   16.7546  -56.3605 H   0  0  0  0  0  0  0  0  0  0  0  0
  -37.5992   17.0119  -57.5632 H   0  0  0  0  0  0  0  0  0  0  0  0
  -38.8583   15.7042  -57.6790 H   0  0  0  0  0  0  0  0  0  0  0  0
  -38.1996   16.9861  -59.7975 H   0  0  0  0  0  0  0  0  0  0  0  0
  -39.9000   16.6398  -59.4113 H   0  0  0  0  0  0  0  0  0  0  0  0
  -38.4963   19.2612  -59.0900 H   0  0  0  0  0  0  0  0  0  0  0  0
  -39.7461   18.8958  -60.2293 H   0  0  0  0  0  0  0  0  0  0  0  0
  1  2  1  0
  2  3  4  0
  3  4  1  0
  4  5  1  0
  5  6  1  0
  4  7  2  0
  2  8  4  0
  8  9  4  0
  9 10  4  0
 10 11  1  0
 11 12  2  0
 11 13  1  1
 11 14  2  0
 10 15  4  0
  3 15  4  0
  9 16  1  0
 16 17  1  0
 17 18  1  0
 18 19  1  0
 19 20  1  0
 20 21  1  0
 21 22  1  0
 17 22  1  0
  6 23  1  0
  6 24  1  0
  6 25  1  0
  8 26  1  0
 13 27  1  0
 13 28  1  0
 15 29  1  0
 17 30  1  6
 18 31  1  0
 18 32  1  0
 19 33  1  0
 19 34  1  0
 20 35  1  0
 20 36  1  0
 21 37  1  0
 21 38  1  0
 22 39  1  0
 22 40  1  0
M  END
