8AIJ_M9I_BBB_203
     RDKit          3D

 36 37  0  0  0  0  0  0  0  0999 V2000
    4.5150    7.7093    5.8663 C   0  0  2  0  0  0  0  0  0  0  0  0
    5.3304    8.6758    6.7762 C   0  0  1  0  0  0  0  0  0  0  0  0
    5.1120   10.1560    6.3889 C   0  0  2  0  0  0  0  0  0  0  0  0
    3.7078   10.3537    5.7887 C   0  0  2  0  0  0  0  0  0  0  0  0
    3.4854    9.3981    4.5690 C   0  0  1  0  0  0  0  0  0  0  0  0
    3.6600   10.1107    3.2231 C   0  0  0  0  0  0  0  0  0  0  0  0
    5.0234    8.4859    8.1345 O   0  0  0  0  0  0  0  0  0  0  0  0
    6.0925   10.5429    5.4576 O   0  0  0  0  0  0  0  0  0  0  0  0
    3.5037   11.7004    5.4381 O   0  0  0  0  0  0  0  0  0  0  0  0
    4.3526    8.2663    4.5720 O   0  0  0  0  0  0  0  0  0  0  0  0
    0.8978    7.5982    6.3639 O   0  0  0  0  0  0  0  0  0  0  0  0
    2.0382    8.1203    6.2266 C   0  0  0  0  0  0  0  0  0  0  0  0
    3.2135    7.3215    6.4362 N   0  0  0  0  0  0  0  0  0  0  0  0
    2.1434    9.5519    5.8587 C   0  0  0  0  0  0  0  0  0  0  0  0
    0.9925   10.2700    5.4843 C   0  0  0  0  0  0  0  0  0  0  0  0
    3.3891   10.2080    5.8470 C   0  0  0  0  0  0  0  0  0  0  0  0
    3.4747   11.5568    5.4880 C   0  0  0  0  0  0  0  0  0  0  0  0
    2.3234   12.2623    5.1316 C   0  0  0  0  0  0  0  0  0  0  0  0
    1.0840   11.6189    5.1274 C   0  0  0  0  0  0  0  0  0  0  0  0
    5.1219    6.7836    5.7604 H   0  0  0  0  0  0  0  0  0  0  0  0
    6.4148    8.4525    6.6331 H   0  0  0  0  0  0  0  0  0  0  0  0
    5.2098   10.7836    7.3068 H   0  0  0  0  0  0  0  0  0  0  0  0
    2.9617   10.0800    6.5714 H   0  0  0  0  0  0  0  0  0  0  0  0
    2.4314    9.0399    4.5941 H   0  0  0  0  0  0  0  0  0  0  0  0
    2.8969   10.9084    3.0998 H   0  0  0  0  0  0  0  0  0  0  0  0
    4.6745   10.5551    3.1450 H   0  0  0  0  0  0  0  0  0  0  0  0
    3.5285    9.3835    2.3936 H   0  0  0  0  0  0  0  0  0  0  0  0
    5.3877    7.5977    8.3884 H   0  0  0  0  0  0  0  0  0  0  0  0
    6.1468   11.5337    5.4868 H   0  0  0  0  0  0  0  0  0  0  0  0
    3.4087   12.2088    6.2859 H   0  0  0  0  0  0  0  0  0  0  0  0
    3.1297    6.4500    7.0044 H   0  0  0  0  0  0  0  0  0  0  0  0
    0.0210    9.7915    5.4778 H   0  0  0  0  0  0  0  0  0  0  0  0
    4.3013    9.6787    6.0893 H   0  0  0  0  0  0  0  0  0  0  0  0
    4.4363   12.0536    5.4795 H   0  0  0  0  0  0  0  0  0  0  0  0
    2.3925   13.3060    4.8533 H   0  0  0  0  0  0  0  0  0  0  0  0
    0.1928   12.1654    4.8470 H   0  0  0  0  0  0  0  0  0  0  0  0
  1  2  1  0
  2  3  1  0
  3  4  1  0
  4  5  1  0
  5  6  1  0
  2  7  1  0
  3  8  1  0
  4  9  1  0
  1 10  1  0
  5 10  1  0
 11 12  2  0
  1 13  1  0
 12 13  1  0
 12 14  1  0
 14 15  4  0
 14 16  4  0
 16 17  4  0
 17 18  4  0
 18 19  4  0
 15 19  4  0
  1 20  1  1
  2 21  1  6
  3 22  1  6
  4 23  1  6
  5 24  1  1
  6 25  1  0
  6 26  1  0
  6 27  1  0
  7 28  1  0
  8 29  1  0
  9 30  1  0
 13 31  1  0
 15 32  1  0
 16 33  1  0
 17 34  1  0
 18 35  1  0
 19 36  1  0
M  END
