
     RDKit          3D

 41 44  0  0  0  0  0  0  0  0999 V2000
   23.4425    3.1476   20.7708 C   0  0  0  0  0  0  0  0  0  0  0  0
   22.0608    2.9855   20.6990 C   0  0  0  0  0  0  0  0  0  0  0  0
   21.5291    1.8721   20.0540 C   0  0  0  0  0  0  0  0  0  0  0  0
   22.3820    0.9168   19.4824 C   0  0  0  0  0  0  0  0  0  0  0  0
   23.7806    1.0398   19.5819 C   0  0  0  0  0  0  0  0  0  0  0  0
   24.2865    2.1834   20.2135 C   0  0  0  0  0  0  0  0  0  0  0  0
   24.7154    0.0058   19.0178 C   0  0  0  0  0  0  0  0  0  0  0  0
   21.7284   -0.1983   18.7602 C   0  0  0  0  0  0  0  0  0  0  0  0
   25.6423    2.3531   20.2793 O   0  0  0  0  0  0  0  0  0  0  0  0
   21.9418   -1.3577   19.0889 O   0  0  0  0  0  0  0  0  0  0  0  0
   20.0964   -2.1814   14.8808 C   0  0  0  0  0  0  0  0  0  0  0  0
   20.8595    0.1904   17.7697 N   0  0  0  0  0  0  0  0  0  0  0  0
   19.0045   -2.2019   14.3076 O   0  0  0  0  0  0  0  0  0  0  0  0
   20.6108   -0.8964   15.5823 C   0  0  2  0  0  0  0  0  0  0  0  0
   18.1075    0.4219   18.2551 C   0  0  0  0  0  0  0  0  0  0  0  0
   18.5605   -0.3102   17.0061 C   0  0  0  0  0  0  0  0  0  0  0  0
   17.2942    1.7389   20.6011 C   0  0  0  0  0  0  0  0  0  0  0  0
   20.0382   -0.7664   17.0128 C   0  0  2  0  0  0  0  0  0  0  0  0
   20.5035    0.3411   14.8895 O   0  0  0  0  0  0  0  0  0  0  0  0
   17.7893   -0.3053   19.4118 C   0  0  0  0  0  0  0  0  0  0  0  0
   18.0314    1.8212   18.3012 C   0  0  0  0  0  0  0  0  0  0  0  0
   17.3808    0.3490   20.5756 C   0  0  0  0  0  0  0  0  0  0  0  0
   17.6202    2.4746   19.4649 C   0  0  0  0  0  0  0  0  0  0  0  0
   19.3037   -5.3916   15.2341 C   0  0  0  0  0  0  0  0  0  0  0  0
   20.8111   -3.3532   15.0301 N   0  0  0  0  0  0  0  0  0  0  0  0
   19.2059   -5.2963   16.4568 O   0  0  0  0  0  0  0  0  0  0  0  0
   20.4420   -4.6678   14.4493 C   0  0  1  0  0  0  0  0  0  0  0  0
   21.7622   -5.4793   14.3922 C   0  0  0  0  0  0  0  0  0  0  0  0
   21.6989   -3.4736   16.1691 C   0  0  0  0  0  0  0  0  0  0  0  0
   21.6356   -7.0022   14.3419 C   0  0  0  0  0  0  0  0  0  0  0  0
   22.6153   -5.0097   13.1995 C   0  0  0  0  0  0  0  0  0  0  0  0
   22.6424   -4.9963   15.9323 S   0  0  0  0  0  0  0  0  0  0  0  0
   18.4270   -6.1451   14.4867 N   0  0  0  0  0  0  0  0  0  0  0  0
   17.2909   -6.8191   15.0743 C   0  0  0  0  0  0  0  0  0  0  0  0
   15.9853   -6.2400   14.5885 C   0  0  0  0  0  0  0  0  0  0  0  0
   15.5728   -4.9266   14.8985 C   0  0  0  0  0  0  0  0  0  0  0  0
   14.3385   -4.4661   14.4132 C   0  0  0  0  0  0  0  0  0  0  0  0
   13.5295   -5.2798   13.6200 C   0  0  0  0  0  0  0  0  0  0  0  0
   13.9438   -6.5662   13.2956 C   0  0  0  0  0  0  0  0  0  0  0  0
   15.1637   -7.0405   13.7725 C   0  0  0  0  0  0  0  0  0  0  0  0
   16.4030   -4.0093   15.7525 C   0  0  0  0  0  0  0  0  0  0  0  0
  1  2  4  0
  2  3  4  0
  3  4  4  0
  4  5  4  0
  1  6  4  0
  5  6  4  0
  5  7  1  0
  4  8  1  0
  6  9  1  0
  8 10  2  0
  8 12  1  0
 11 13  2  0
 11 14  1  0
 15 16  1  0
 12 18  1  0
 18 16  1  6
 14 18  1  0
 14 19  1  6
 15 20  4  0
 15 21  4  0
 20 22  4  0
 17 22  4  0
 17 23  4  0
 21 23  4  0
 11 25  1  0
 24 26  2  0
 25 27  1  0
 27 24  1  1
 27 28  1  0
 25 29  1  0
 28 30  1  0
 28 31  1  0
 29 32  1  0
 28 32  1  0
 24 33  1  0
 33 34  1  0
 34 35  1  0
 35 36  4  0
 36 37  4  0
 37 38  4  0
 38 39  4  0
 35 40  4  0
 39 40  4  0
 36 41  1  0
M  END
