7NGW_UAW_A_301
     RDKit          3D

 35 36  0  0  0  0  0  0  0  0999 V2000
  -12.4007  -28.4041    3.9929 C   0  0  0  0  0  0  0  0  0  0  0  0
  -13.3913  -28.0668    1.8172 C   0  0  0  0  0  0  0  0  0  0  0  0
  -15.5573  -29.2647    1.5862 C   0  0  0  0  0  0  0  0  0  0  0  0
  -16.7620  -29.6931    2.1598 C   0  0  0  0  0  0  0  0  0  0  0  0
  -15.2732  -29.7067    0.2971 C   0  0  0  0  0  0  0  0  0  0  0  0
  -16.1874  -30.4397   -0.4263 C   0  0  0  0  0  0  0  0  0  0  0  0
  -17.3552  -30.8785    0.1645 C   0  0  0  0  0  0  0  0  0  0  0  0
  -17.6378  -30.4524    1.4327 C   0  0  0  0  0  0  0  0  0  0  0  0
  -11.0147  -27.6218    2.0803 C   0  0  0  0  0  0  0  0  0  0  0  0
  -10.0081  -27.0885    3.0445 C   0  0  0  0  0  0  0  0  0  0  0  0
  -12.3611  -27.7881    2.6548 N   0  0  0  0  0  0  0  0  0  0  0  0
  -14.5728  -28.6025    2.2497 N   0  0  0  0  0  0  0  0  0  0  0  0
  -11.4362  -27.7291    4.9179 C   0  0  0  0  0  0  0  0  0  0  0  0
   -8.9329  -27.4924    5.2751 C   0  0  0  0  0  0  0  0  0  0  0  0
  -10.0566  -27.8590    4.3416 C   0  0  2  0  0  0  0  0  0  0  0  0
  -13.4602  -27.3262    0.6992 O   0  0  0  0  0  0  0  0  0  0  0  0
  -18.1039  -31.6246   -0.6752 O   0  0  0  0  0  0  0  0  0  0  0  0
  -13.3898  -28.3144    4.3912 H   0  0  0  0  0  0  0  0  0  0  0  0
  -12.1268  -29.4346    3.9043 H   0  0  0  0  0  0  0  0  0  0  0  0
  -16.9892  -29.4353    3.1328 H   0  0  0  0  0  0  0  0  0  0  0  0
  -14.3590  -29.4806   -0.1250 H   0  0  0  0  0  0  0  0  0  0  0  0
  -15.9982  -30.6623   -1.4162 H   0  0  0  0  0  0  0  0  0  0  0  0
  -18.5425  -30.7122    1.8558 H   0  0  0  0  0  0  0  0  0  0  0  0
  -11.0820  -26.9449    1.2544 H   0  0  0  0  0  0  0  0  0  0  0  0
  -10.6795  -28.5948    1.7873 H   0  0  0  0  0  0  0  0  0  0  0  0
   -9.0308  -27.1781    2.6184 H   0  0  0  0  0  0  0  0  0  0  0  0
  -10.2314  -26.0613    3.2443 H   0  0  0  0  0  0  0  0  0  0  0  0
  -14.7402  -28.4882    3.2132 H   0  0  0  0  0  0  0  0  0  0  0  0
  -11.6917  -26.6946    5.0141 H   0  0  0  0  0  0  0  0  0  0  0  0
  -11.4747  -28.1848    5.8853 H   0  0  0  0  0  0  0  0  0  0  0  0
   -7.9966  -27.6180    4.7727 H   0  0  0  0  0  0  0  0  0  0  0  0
   -9.0404  -26.4723    5.5793 H   0  0  0  0  0  0  0  0  0  0  0  0
   -8.9635  -28.1266    6.1364 H   0  0  0  0  0  0  0  0  0  0  0  0
   -9.8819  -28.8994    4.1627 H   0  0  0  0  0  0  0  0  0  0  0  0
  -17.7772  -31.8425   -1.5260 H   0  0  0  0  0  0  0  0  0  0  0  0
  3  4  4  0
  3  5  4  0
  5  6  4  0
  6  7  4  0
  4  8  4  0
  7  8  4  0
  9 10  1  0
  2 11  1  0
  9 11  1  0
  1 11  1  0
  3 12  1  0
  2 12  1  0
  1 13  1  0
 10 15  1  0
 13 15  1  0
 14 15  1  0
  2 16  2  0
  7 17  1  0
  1 18  1  0
  1 19  1  0
  4 20  1  0
  5 21  1  0
  6 22  1  0
  8 23  1  0
  9 24  1  0
  9 25  1  0
 10 26  1  0
 10 27  1  0
 12 28  1  0
 13 29  1  0
 13 30  1  0
 14 31  1  0
 14 32  1  0
 14 33  1  0
 15 34  1  1
 17 35  1  0
M  END
