6ZX3_QRZ_A_501
     RDKit          3D

 24 25  0  0  0  0  0  0  0  0999 V2000
   15.7536   10.2208   38.2070 C   0  0  0  0  0  0  0  0  0  0  0  0
   14.3357    9.6928   34.8383 C   0  0  0  0  0  0  0  0  0  0  0  0
   10.9032   13.5456   43.0281 O   0  0  0  0  0  0  0  0  0  0  0  0
   12.1793   13.3057   41.9208 P   0  0  2  0  0  0  0  0  0  0  0  0
   13.3081   12.7022   42.6882 O   0  0  0  0  0  0  0  0  0  0  0  0
   12.6276   14.8078   41.3463 O   0  0  0  0  0  0  0  0  0  0  0  0
   11.5826   12.2717   40.7323 O   0  0  0  0  0  0  0  0  0  0  0  0
   11.6031   12.8188   39.4585 C   0  0  0  0  0  0  0  0  0  0  0  0
   12.0301   11.7974   38.4392 C   0  0  2  0  0  0  0  0  0  0  0  0
   11.7310   10.3816   38.8829 C   0  0  1  0  0  0  0  0  0  0  0  0
   10.3919   10.0779   38.8773 O   0  0  0  0  0  0  0  0  0  0  0  0
   12.5171    9.6218   37.8057 C   0  0  1  0  0  0  0  0  0  0  0  0
   11.5725    9.3407   36.7987 O   0  0  0  0  0  0  0  0  0  0  0  0
   13.4169   11.7214   38.3193 O   0  0  0  0  0  0  0  0  0  0  0  0
   13.5180   10.6542   37.4041 C   0  0  1  0  0  0  0  0  0  0  0  0
   14.8488   10.2015   37.1887 N   0  0  0  0  0  0  0  0  0  0  0  0
   15.2382    9.7482   35.9827 C   0  0  0  0  0  0  0  0  0  0  0  0
   16.5336    9.3134   35.7939 C   0  0  0  0  0  0  0  0  0  0  0  0
   17.4495    9.3344   36.8300 C   0  0  0  0  0  0  0  0  0  0  0  0
   18.6350    8.9336   36.6469 O   0  0  0  0  0  0  0  0  0  0  0  0
   17.0159    9.7976   38.0243 N   0  0  0  0  0  0  0  0  0  0  0  0
   15.4215   10.6436   39.3639 O   0  0  0  0  0  0  0  0  0  0  0  0
   13.8852   11.0169   33.9965 S   0  0  0  0  0  0  0  0  0  0  0  0
   13.8204    8.4093   34.4357 N   0  0  0  0  0  0  0  0  0  0  0  0
  4  3  1  1
  4  5  2  0
  4  6  1  0
  4  7  1  0
  7  8  1  0
  9  8  1  1
  9 10  1  0
 10 11  1  6
 10 12  1  0
 12 13  1  6
  9 14  1  0
 14 15  1  0
 12 15  1  0
 15 16  1  1
  1 16  1  0
  2 17  1  0
 16 17  1  0
 17 18  2  0
 18 19  1  0
 19 20  2  0
 19 21  1  0
  1 21  1  0
  1 22  2  0
  2 23  2  0
  2 24  1  0
M  END
$$$$
