7D8Q_GZF_A_201
     RDKit          3D

 28 30  0  0  0  0  0  0  0  0999 V2000
  -30.4061   -1.0168   29.1037 O   0  0  0  0  0  0  0  0  0  0  0  0
  -30.7556   -2.3598   29.1109 C   0  0  1  0  0  0  0  0  0  0  0  0
  -31.7481   -2.6950   28.0232 C   0  0  1  0  0  0  0  0  0  0  0  0
  -31.5471   -1.7038   26.9023 C   0  0  0  0  0  0  0  0  0  0  0  0
  -32.6542   -1.7040   26.0224 O   0  0  0  0  0  0  0  0  0  0  0  0
  -32.5645   -3.1284   25.0794 P   0  0  2  0  0  0  0  0  0  0  0  0
  -33.8426   -3.2327   24.0044 O   0  0  0  0  0  0  0  0  0  0  0  0
  -32.5456   -4.3577   25.9710 O   0  0  0  0  0  0  0  0  0  0  0  0
  -31.1112   -3.0748   24.2250 O   0  0  0  0  0  0  0  0  0  0  0  0
  -30.4797   -4.5678   23.8563 P   0  0  1  0  0  0  0  0  0  0  0  0
  -28.8326   -4.4009   23.4449 O   0  0  0  0  0  0  0  0  0  0  0  0
  -30.4888   -5.4749   25.3052 O   0  0  0  0  0  0  0  0  0  0  0  0
  -31.3451   -5.4395   22.6668 S   0  0  0  0  0  0  0  0  0  0  0  0
  -31.5327   -3.9870   27.6398 O   0  0  0  0  0  0  0  0  0  0  0  0
  -30.3571   -4.4417   28.1557 C   0  0  2  0  0  0  0  0  0  0  0  0
  -30.5420   -5.3546   29.2801 N   0  0  0  0  0  0  0  0  0  0  0  0
  -31.4816   -5.1423   30.2264 C   0  0  0  0  0  0  0  0  0  0  0  0
  -31.3957   -6.1549   31.1157 N   0  0  0  0  0  0  0  0  0  0  0  0
  -30.4129   -6.9753   30.7138 C   0  0  0  0  0  0  0  0  0  0  0  0
  -29.9434   -8.1326   31.2740 C   0  0  0  0  0  0  0  0  0  0  0  0
  -30.4758   -8.6506   32.4374 O   0  0  0  0  0  0  0  0  0  0  0  0
  -28.9291   -8.7580   30.6419 N   0  0  0  0  0  0  0  0  0  0  0  0
  -28.4026   -8.2487   29.4943 C   0  0  0  0  0  0  0  0  0  0  0  0
  -27.3330   -8.9972   28.9151 N   0  0  0  0  0  0  0  0  0  0  0  0
  -28.8699   -7.1070   28.9468 N   0  0  0  0  0  0  0  0  0  0  0  0
  -29.8679   -6.4728   29.5503 C   0  0  0  0  0  0  0  0  0  0  0  0
  -29.6045   -3.2569   28.7186 C   0  0  1  0  0  0  0  0  0  0  0  0
  -28.7763   -2.7099   27.7509 O   0  0  0  0  0  0  0  0  0  0  0  0
  2  1  1  6
  2  3  1  0
  3  4  1  6
  4  5  1  0
  5  6  1  0
  6  7  1  6
  6  8  2  0
  6  9  1  0
  9 10  1  0
 10 11  1  6
 10 12  1  0
 10 13  2  0
  3 14  1  0
 14 15  1  0
 15 16  1  1
 16 17  1  0
 17 18  2  0
 18 19  1  0
 19 20  2  0
 20 21  1  0
 20 22  1  0
 22 23  2  0
 23 24  1  0
 23 25  1  0
 25 26  2  0
 16 26  1  0
 19 26  1  0
  2 27  1  0
 15 27  1  0
 27 28  1  6
M  END
$$$$
