6WTN_RXT_A_1204
     RDKit          3D

 41 44  0  0  0  0  0  0  0  0999 V2000
   22.6480   10.8263    6.3413 C   0  0  0  0  0  0  0  0  0  0  0  0
   24.1380   11.1689    6.7723 C   0  0  0  0  0  0  0  0  0  0  0  0
   23.9966   12.0345    8.0981 C   0  0  0  0  0  0  0  0  0  0  0  0
   22.5924   11.8099    8.5906 C   0  0  0  0  0  0  0  0  0  0  0  0
   21.7024   11.4038    7.4093 C   0  0  1  0  0  0  0  0  0  0  0  0
   20.9759   12.5991    6.8207 C   0  0  1  0  0  0  0  0  0  0  0  0
   19.5696   12.1273    6.4369 C   0  0  0  0  0  0  0  0  0  0  0  0
   19.6256   11.3447    5.2112 C   0  0  0  0  0  0  0  0  0  0  0  0
   19.6009   10.7463    4.2435 N   0  0  0  0  0  0  0  0  0  0  0  0
   20.7478   13.6452    7.8311 N   0  0  0  0  0  4  0  0  0  0  0  0
   20.3853   13.4421    9.1149 C   0  0  0  0  0  0  0  0  0  0  0  0
   20.9706   15.0082    7.6506 N   0  0  0  0  0  0  0  0  0  0  0  0
   20.7101   15.6199    8.8079 C   0  0  0  0  0  0  0  0  0  0  0  0
   20.3233   14.6708    9.7224 C   0  0  0  0  0  0  0  0  0  0  0  0
   20.0170   14.9180   11.1539 C   0  0  0  0  0  0  0  0  0  0  0  0
   20.1691   16.1833   11.5198 N   0  0  0  0  0  0  0  0  0  0  0  0
   19.9539   16.4825   12.8270 C   0  0  0  0  0  0  0  0  0  0  0  0
   19.6432   15.6372   13.7970 N   0  0  0  0  0  0  0  0  0  0  0  0
   19.5031   14.3415   13.4345 C   0  0  0  0  0  0  0  0  0  0  0  0
   19.6962   13.9429   12.1500 C   0  0  0  0  0  0  0  0  0  0  0  0
   19.5004   12.5812   12.1067 C   0  0  0  0  0  0  0  0  0  0  0  0
   19.1852   12.1730   13.3778 C   0  0  0  0  0  0  0  0  0  0  0  0
   19.1985   13.2595   14.1776 N   0  0  0  0  0  4  0  0  0  0  0  0
   22.5221    9.7655    6.2795 H   0  0  0  0  0  0  0  0  0  0  0  0
   22.4306   11.2492    5.3827 H   0  0  0  0  0  0  0  0  0  0  0  0
   24.6305   11.7316    6.0070 H   0  0  0  0  0  0  0  0  0  0  0  0
   24.7227   10.2867    6.9298 H   0  0  0  0  0  0  0  0  0  0  0  0
   24.1546   13.0710    7.8844 H   0  0  0  0  0  0  0  0  0  0  0  0
   24.7204   11.7488    8.8324 H   0  0  0  0  0  0  0  0  0  0  0  0
   22.2177   12.7120    9.0273 H   0  0  0  0  0  0  0  0  0  0  0  0
   22.5894   11.0330    9.3264 H   0  0  0  0  0  0  0  0  0  0  0  0
   20.9612   10.7027    7.7319 H   0  0  0  0  0  0  0  0  0  0  0  0
   21.5612   12.9784    6.0092 H   0  0  0  0  0  0  0  0  0  0  0  0
   18.9391   12.9785    6.2856 H   0  0  0  0  0  0  0  0  0  0  0  0
   19.1752   11.5198    7.2245 H   0  0  0  0  0  0  0  0  0  0  0  0
   20.1906   12.5307    9.5582 H   0  0  0  0  0  0  0  0  0  0  0  0
   20.7863   16.6336    8.9855 H   0  0  0  0  0  0  0  0  0  0  0  0
   20.0421   17.4759   13.0927 H   0  0  0  0  0  0  0  0  0  0  0  0
   19.5766   11.9787   11.2722 H   0  0  0  0  0  0  0  0  0  0  0  0
   18.9751   11.2060   13.6706 H   0  0  0  0  0  0  0  0  0  0  0  0
   19.0158   13.2615   15.1450 H   0  0  0  0  0  0  0  0  0  0  0  0
  1  2  1  0
  2  3  1  0
  3  4  1  0
  4  5  1  0
  1  5  1  0
  5  6  1  0
  6  7  1  0
  7  8  1  0
  8  9  3  0
  6 10  1  0
 10 11  4  0
 10 12  4  0
 12 13  4  0
 13 14  4  0
 11 14  4  0
 14 15  1  0
 15 16  4  0
 16 17  4  0
 17 18  4  0
 18 19  4  0
 15 20  4  0
 19 20  4  0
 20 21  4  0
 21 22  4  0
 19 23  4  0
 22 23  4  0
  1 24  1  0
  1 25  1  0
  2 26  1  0
  2 27  1  0
  3 28  1  0
  3 29  1  0
  4 30  1  0
  4 31  1  0
  5 32  1  1
  6 33  1  6
  7 34  1  0
  7 35  1  0
 11 36  1  0
 13 37  1  0
 17 38  1  0
 21 39  1  0
 22 40  1  0
 23 41  1  0
M  CHG  2  10   1  23   1
M  END
