7KC5_BJZ_C_402
     RDKit          3D

 56 60  0  0  0  0  0  0  0  0999 V2000
   -7.9015  -19.4008   15.5090 C   0  0  0  0  0  0  0  0  0  0  0  0
   -6.7171  -19.1056   16.1409 C   0  0  0  0  0  0  0  0  0  0  0  0
   -5.7892  -20.1352   16.3182 C   0  0  0  0  0  0  0  0  0  0  0  0
   -6.0810  -21.4256   15.9257 C   0  0  0  0  0  0  0  0  0  0  0  0
   -7.2927  -21.6680   15.3074 C   0  0  0  0  0  0  0  0  0  0  0  0
   -8.2243  -20.6636   15.1232 C   0  0  0  0  0  0  0  0  0  0  0  0
   -7.7204  -23.2906   14.7675 Cl  0  0  0  0  0  0  0  0  0  0  0  0
   -4.5226  -19.9509   17.0139 N   0  0  0  0  0  0  0  0  0  0  0  0
   -3.6106  -18.8499   16.6473 C   0  0  0  0  0  0  0  0  0  0  0  0
   -2.5032  -18.9204   17.6031 N   0  0  0  0  0  0  0  0  0  0  0  0
   -2.7716  -19.9627   18.6019 C   0  0  1  0  0  0  0  0  0  0  0  0
   -4.0428  -20.6786   18.1493 C   0  0  0  0  0  0  0  0  0  0  0  0
   -4.6391  -21.5841   18.5790 O   0  0  0  0  0  0  0  0  0  0  0  0
   -1.4635  -20.9507   18.8098 C   0  0  0  0  0  0  0  0  0  0  0  0
   -1.6747  -21.3507   20.0839 N   0  0  0  0  0  0  0  0  0  0  0  0
   -2.7345  -20.5399   20.9249 C   0  0  0  0  0  0  0  0  0  0  0  0
   -2.9594  -19.3737   19.8431 C   0  0  2  0  0  0  0  0  0  0  0  0
   -4.3906  -18.7156   20.0462 C   0  0  0  0  0  0  0  0  0  0  0  0
   -4.5771  -17.4421   19.5527 C   0  0  0  0  0  0  0  0  0  0  0  0
   -5.8236  -16.8346   19.6789 C   0  0  0  0  0  0  0  0  0  0  0  0
   -6.8712  -17.4838   20.3057 C   0  0  0  0  0  0  0  0  0  0  0  0
   -6.6774  -18.7690   20.8242 C   0  0  0  0  0  0  0  0  0  0  0  0
   -5.4297  -19.3529   20.6892 C   0  0  0  0  0  0  0  0  0  0  0  0
   -8.2124  -16.7573   20.4275 C   0  0  0  0  0  0  0  0  0  0  0  0
   -9.1859  -16.2403   20.5082 N   0  0  0  0  0  0  0  0  0  0  0  0
   -0.6176  -22.1095   20.7158 C   0  0  0  0  0  0  0  0  0  0  0  0
    0.3899  -22.4521   19.9245 N   0  0  0  0  0  0  0  0  0  0  0  0
    1.3952  -23.1818   20.4591 C   0  0  0  0  0  0  0  0  0  0  0  0
    1.3504  -23.5324   21.7799 C   0  0  0  0  0  0  0  0  0  0  0  0
    0.2994  -23.2062   22.5831 C   0  0  0  0  0  0  0  0  0  0  0  0
   -0.7100  -22.4818   22.0585 C   0  0  0  0  0  0  0  0  0  0  0  0
    2.4891  -24.3735   22.3478 C   0  0  0  0  0  0  0  0  0  0  0  0
    3.5550  -23.7932   22.6381 O   0  0  0  0  0  0  0  0  0  0  0  0
    2.3160  -25.6000   22.5456 O   0  0  0  0  0  0  0  0  0  0  0  0
   -1.4052  -17.9841   17.5857 C   0  0  0  0  0  0  0  0  0  0  0  0
   -3.7866  -18.1024   15.7463 O   0  0  0  0  0  0  0  0  0  0  0  0
   -9.0252  -18.0973   15.2589 Cl  0  0  0  0  0  0  0  0  0  0  0  0
   -6.5185  -18.1497   16.4753 H   0  0  0  0  0  0  0  0  0  0  0  0
   -5.4096  -22.1920   16.0901 H   0  0  0  0  0  0  0  0  0  0  0  0
   -9.1441  -20.8678   14.7023 H   0  0  0  0  0  0  0  0  0  0  0  0
   -1.4751  -21.7748   18.1274 H   0  0  0  0  0  0  0  0  0  0  0  0
   -0.5151  -20.4878   18.6331 H   0  0  0  0  0  0  0  0  0  0  0  0
   -3.6249  -21.1011   21.1176 H   0  0  0  0  0  0  0  0  0  0  0  0
   -2.4462  -20.2397   21.9107 H   0  0  0  0  0  0  0  0  0  0  0  0
   -2.2698  -18.5622   19.9467 H   0  0  0  0  0  0  0  0  0  0  0  0
   -3.7991  -16.9431   19.0935 H   0  0  0  0  0  0  0  0  0  0  0  0
   -5.9676  -15.8860   19.2990 H   0  0  0  0  0  0  0  0  0  0  0  0
   -7.4466  -19.2697   21.2961 H   0  0  0  0  0  0  0  0  0  0  0  0
   -5.2728  -20.2943   21.0819 H   0  0  0  0  0  0  0  0  0  0  0  0
    2.1929  -23.4728   19.8725 H   0  0  0  0  0  0  0  0  0  0  0  0
    0.2763  -23.5066   23.5702 H   0  0  0  0  0  0  0  0  0  0  0  0
   -1.5247  -22.2112   22.6312 H   0  0  0  0  0  0  0  0  0  0  0  0
    1.5014  -26.0015   22.3145 H   0  0  0  0  0  0  0  0  0  0  0  0
   -1.4892  -17.3519   16.7265 H   0  0  0  0  0  0  0  0  0  0  0  0
   -1.4323  -17.3862   18.4726 H   0  0  0  0  0  0  0  0  0  0  0  0
   -0.4800  -18.5201   17.5450 H   0  0  0  0  0  0  0  0  0  0  0  0
  1  2  4  0
  2  3  4  0
  3  4  4  0
  4  5  4  0
  1  6  4  0
  5  6  4  0
  5  7  1  0
  3  8  1  0
  8  9  1  0
  9 10  1  0
 10 11  1  0
  8 12  1  0
 11 12  1  1
 12 13  2  0
 11 14  1  0
 14 15  1  0
 15 16  1  0
 11 17  1  0
 16 17  1  0
 17 18  1  0
 18 19  4  0
 19 20  4  0
 20 21  4  0
 21 22  4  0
 18 23  4  0
 22 23  4  0
 21 24  1  0
 24 25  3  0
 15 26  1  0
 26 27  4  0
 27 28  4  0
 28 29  4  0
 29 30  4  0
 26 31  4  0
 30 31  4  0
 29 32  1  0
 32 33  2  0
 32 34  1  0
 10 35  1  0
  9 36  2  0
  1 37  1  0
  2 38  1  0
  4 39  1  0
  6 40  1  0
 14 41  1  0
 14 42  1  0
 16 43  1  0
 16 44  1  0
 17 45  1  6
 19 46  1  0
 20 47  1  0
 22 48  1  0
 23 49  1  0
 28 50  1  0
 30 51  1  0
 31 52  1  0
 34 53  1  0
 35 54  1  0
 35 55  1  0
 35 56  1  0
M  END
