
     RDKit          3D

 17 18  0  0  0  0  0  0  0  0999 V2000
  -17.4936   -0.1876   -4.1051 C   0  0  0  0  0  0  0  0  0  0  0  0
  -15.1251   -0.6703   -3.7237 C   0  0  0  0  0  0  0  0  0  0  0  0
  -16.2358    0.1877   -3.6278 C   0  0  0  0  0  0  0  0  0  0  0  0
  -17.6696   -1.4355   -4.6957 C   0  0  0  0  0  0  0  0  0  0  0  0
  -12.0364    1.2447   -3.4197 C   0  0  0  0  0  0  0  0  0  0  0  0
  -11.3590    0.6622   -2.3559 C   0  0  0  0  0  0  0  0  0  0  0  0
  -11.9317   -0.4241   -1.6952 C   0  0  0  0  0  0  0  0  0  0  0  0
  -13.1824   -0.8737   -2.1225 C   0  0  0  0  0  0  0  0  0  0  0  0
  -13.8043   -0.2507   -3.2046 C   0  0  0  0  0  0  0  0  0  0  0  0
  -11.2546   -1.0490   -0.5141 C   0  0  0  0  0  0  0  0  0  0  0  0
  -16.5901   -2.3179   -4.8190 C   0  0  0  0  0  0  0  0  0  0  0  0
  -15.3285   -1.9226   -4.3375 C   0  0  0  0  0  0  0  0  0  0  0  0
  -16.7781   -3.6640   -5.4790 C   0  0  0  0  0  0  0  0  0  0  0  0
  -18.0388   -5.5131   -4.5947 C   0  0  0  0  0  0  0  0  0  0  0  0
  -13.2309    0.8031   -3.8399 N   0  0  0  0  0  0  0  0  0  0  0  0
  -11.4744    2.3353   -4.0929 N   0  0  0  0  0  0  0  0  0  0  0  0
  -16.8165   -4.7331   -4.4829 N   0  0  0  0  0  0  0  0  0  0  0  0
  2  3  4  0
  1  3  4  0
  1  4  4  0
  5  6  4  0
  6  7  4  0
  7  8  4  0
  8  9  4  0
  2  9  1  0
  7 10  1  0
  4 11  4  0
  2 12  4  0
 11 12  4  0
 11 13  1  0
  9 15  4  0
  5 15  4  0
  5 16  1  0
 13 17  1  0
 14 17  1  0
M  END
