
     RDKit          3D

 30 34  0  0  0  0  0  0  0  0999 V2000
   24.1644  -20.5944   37.5725 N   0  0  0  0  0  0  0  0  0  0  0  0
   22.2058  -14.4418   38.6494 N   0  0  0  0  0  0  0  0  0  0  0  0
   22.6612  -14.7700   37.3815 C   0  0  0  0  0  0  0  0  0  0  0  0
   22.3645  -15.4280   39.7072 C   0  0  0  0  0  0  0  0  0  0  0  0
   23.4965  -15.0344   40.6258 C   0  0  0  0  0  0  0  0  0  0  0  0
   23.5951  -13.7242   41.1131 C   0  0  0  0  0  0  0  0  0  0  0  0
   24.6355  -13.3532   41.9720 C   0  0  0  0  0  0  0  0  0  0  0  0
   26.7935  -12.8202   44.0173 C   0  0  0  0  0  0  0  0  0  0  0  0
   25.4931  -15.6134   41.8863 C   0  0  0  0  0  0  0  0  0  0  0  0
   22.2144  -14.1183   36.2451 C   0  0  0  0  0  0  0  0  0  0  0  0
   22.1836  -13.6757   32.5567 C   0  0  0  0  0  0  0  0  0  0  0  0
   21.9902  -15.0743   31.9138 C   0  0  0  0  0  0  0  0  0  0  0  0
   22.6754  -14.4794   34.9957 C   0  0  0  0  0  0  0  0  0  0  0  0
   23.7344  -19.2298   37.2526 C   0  0  0  0  0  0  0  0  0  0  0  0
   24.8943  -18.2372   37.3848 C   0  0  0  0  0  0  0  0  0  0  0  0
   25.2036  -17.3400   35.8243 S   0  0  0  0  0  0  0  0  0  0  0  0
   23.9935  -16.0358   35.9314 C   0  0  0  0  0  0  0  0  0  0  0  0
   23.5773  -15.7422   37.1815 N   0  0  0  0  0  0  0  0  0  0  0  0
   25.5939  -14.2973   42.3614 C   0  0  0  0  0  0  0  0  0  0  0  0
   26.6656  -13.9481   43.2306 N   0  0  0  0  0  0  0  0  0  0  0  0
   27.9962  -12.9158   44.6755 C   0  0  0  0  0  0  0  0  0  0  0  0
   28.5392  -14.1305   44.2375 C   0  0  0  0  0  0  0  0  0  0  0  0
   27.7495  -14.7603   43.3681 N   0  0  0  0  0  0  0  0  0  0  0  0
   24.4507  -15.9779   41.0294 C   0  0  0  0  0  0  0  0  0  0  0  0
   21.3588  -13.0777   36.0279 N   0  0  0  0  0  0  0  0  0  0  0  0
   21.1780  -12.7733   34.7267 N   0  0  0  0  0  0  0  0  0  0  0  0
   22.0077  -13.6183   34.0996 C   0  0  0  0  0  0  0  0  0  0  0  0
   23.6466  -13.7501   32.0479 C   0  0  0  0  0  0  0  0  0  0  0  0
   23.1354  -14.7055   30.9496 C   0  0  0  0  0  0  0  0  0  0  0  0
   23.5734  -15.4622   34.7986 N   0  0  0  0  0  0  0  0  0  0  0  0
  2  3  1  0
  2  4  1  0
  4  5  1  0
  5  6  4  0
  6  7  4  0
  3 10  4  0
 11 12  1  0
 10 13  4  0
  1 14  1  0
 14 15  1  0
 15 16  1  0
 16 17  1  0
 17 18  4  0
  3 18  4  0
  7 19  4  0
  9 19  4  0
 19 20  1  0
  8 20  4  0
  8 21  4  0
 21 22  4  0
 20 23  4  0
 22 23  4  0
  5 24  4  0
  9 24  4  0
 10 25  4  0
 25 26  4  0
 11 27  1  0
 26 27  4  0
 13 27  4  0
 11 28  1  0
 12 29  1  0
 28 29  1  0
 13 30  4  0
 17 30  4  0
M  END
