7SGV_L30_A_501
     RDKit          3D

 19 21  0  0  0  0  0  0  0  0999 V2000
   -1.3836   93.0015   17.7376 O   0  0  0  0  0  0  0  0  0  0  0  0
   -2.5892   92.8809   17.4363 C   0  0  0  0  0  0  0  0  0  0  0  0
   -2.8991   91.9383   16.3558 C   0  0  0  0  0  0  0  0  0  0  0  0
   -1.9401   91.1457   15.7588 C   0  0  0  0  0  0  0  0  0  0  0  0
   -2.3024   90.2708   14.7370 C   0  0  0  0  0  0  0  0  0  0  0  0
   -3.6109   90.1669   14.2925 C   0  0  0  0  0  0  0  0  0  0  0  0
   -4.5224   90.9506   14.8920 N   0  0  0  0  0  0  0  0  0  0  0  0
   -4.1886   91.7989   15.8783 C   0  0  0  0  0  0  0  0  0  0  0  0
   -3.5913   93.6250   18.1147 N   0  0  0  0  0  0  0  0  0  0  0  0
   -3.3587   94.5453   19.1628 C   0  0  0  0  0  0  0  0  0  0  0  0
   -2.1292   94.8624   19.6717 C   0  0  0  0  0  0  0  0  0  0  0  0
   -1.9477   95.7829   20.7134 C   0  0  0  0  0  0  0  0  0  0  0  0
   -3.0184   96.4226   21.2834 C   0  0  0  0  0  0  0  0  0  0  0  0
   -4.2712   96.1123   20.7790 C   0  0  0  0  0  0  0  0  0  0  0  0
   -5.3316   96.7690   21.3693 C   0  0  0  0  0  0  0  0  0  0  0  0
   -6.6142   96.5321   20.9424 C   0  0  0  0  0  0  0  0  0  0  0  0
   -6.8314   95.6382   19.9256 C   0  0  0  0  0  0  0  0  0  0  0  0
   -5.7449   94.9839   19.3414 C   0  0  0  0  0  0  0  0  0  0  0  0
   -4.4460   95.1969   19.7440 C   0  0  0  0  0  0  0  0  0  0  0  0
  1  2  2  0
  2  3  1  0
  3  4  2  0
  4  5  1  0
  5  6  2  0
  6  7  1  0
  7  8  2  0
  3  8  1  0
  2  9  1  0
  9 10  1  0
 10 11  2  0
 11 12  1  0
 12 13  2  0
 13 14  1  0
 14 15  2  0
 15 16  1  0
 16 17  2  0
 17 18  1  0
 18 19  2  0
 14 19  1  0
 10 19  1  0
M  END
$$$$
