7P1M_4IU_B_201
     RDKit          3D

 42 44  0  0  0  0  0  0  0  0999 V2000
   46.3469   -7.4701  -29.4695 O   0  0  0  0  0  0  0  0  0  0  0  0
   46.0665   -7.6683  -28.2923 C   0  0  0  0  0  0  0  0  0  0  0  0
   47.0168   -7.7839  -27.3638 O   0  0  0  0  0  0  0  0  0  0  0  0
   44.6774   -7.9052  -27.8099 C   0  0  0  0  0  0  0  0  0  0  0  0
   44.4835   -8.0975  -26.4633 C   0  0  0  0  0  0  0  0  0  0  0  0
   43.2173   -8.3078  -25.9622 C   0  0  0  0  0  0  0  0  0  0  0  0
   42.1015   -8.2679  -26.7495 C   0  0  0  0  0  0  0  0  0  0  0  0
   40.7629   -8.4007  -26.5380 N   0  0  0  0  0  0  0  0  0  0  0  0
   43.5756   -7.8935  -28.6965 C   0  0  0  0  0  0  0  0  0  0  0  0
   42.2856   -8.0597  -28.1871 C   0  0  0  0  0  0  0  0  0  0  0  0
   41.0762   -8.0734  -28.7251 N   0  0  0  0  0  4  0  0  0  0  0  0
   40.8740   -7.9274  -30.1758 C   0  0  0  0  0  0  0  0  0  0  0  0
   40.1563   -8.3032  -27.7690 C   0  0  0  0  0  0  0  0  0  0  0  0
   38.7002   -8.4083  -28.0321 C   0  0  0  0  0  0  0  0  0  0  0  0
   37.9568   -7.4378  -27.3278 O   0  0  0  0  0  0  0  0  0  0  0  0
   36.5502   -7.7029  -27.5047 C   0  0  2  0  0  0  0  0  0  0  0  0
   36.2576   -7.6967  -28.9802 C   0  0  0  0  0  0  0  0  0  0  0  0
   35.1586   -7.2121  -29.4805 C   0  0  0  0  0  0  0  0  0  0  0  0
   34.1369   -6.6113  -28.6522 O   0  0  0  0  0  0  0  0  0  0  0  0
   34.3157   -6.6841  -27.1889 C   0  0  1  0  0  0  0  0  0  0  0  0
   35.8187   -6.5872  -26.8454 C   0  0  2  0  0  0  0  0  0  0  0  0
   36.5251   -5.3930  -27.2936 O   0  0  0  0  0  0  0  0  0  0  0  0
   33.5121   -5.6066  -26.5080 C   0  0  0  0  0  0  0  0  0  0  0  0
   32.1291   -6.0395  -26.5486 O   0  0  0  0  0  0  0  0  0  0  0  0
   45.6646   -7.3918  -30.1069 H   0  0  0  0  0  0  0  0  0  0  0  0
   45.2923   -8.0844  -25.8224 H   0  0  0  0  0  0  0  0  0  0  0  0
   43.1077   -8.5027  -24.9548 H   0  0  0  0  0  0  0  0  0  0  0  0
   43.7232   -7.7636  -29.7096 H   0  0  0  0  0  0  0  0  0  0  0  0
   41.8162   -7.7515  -30.6514 H   0  0  0  0  0  0  0  0  0  0  0  0
   40.2200   -7.1015  -30.3634 H   0  0  0  0  0  0  0  0  0  0  0  0
   40.4385   -8.8231  -30.5671 H   0  0  0  0  0  0  0  0  0  0  0  0
   38.3662   -9.3803  -27.7345 H   0  0  0  0  0  0  0  0  0  0  0  0
   38.5441   -8.2443  -29.0779 H   0  0  0  0  0  0  0  0  0  0  0  0
   36.2598   -8.6445  -27.0876 H   0  0  0  0  0  0  0  0  0  0  0  0
   36.9593   -8.0944  -29.6239 H   0  0  0  0  0  0  0  0  0  0  0  0
   35.0114   -7.2579  -30.5009 H   0  0  0  0  0  0  0  0  0  0  0  0
   33.9538   -7.6242  -26.8282 H   0  0  0  0  0  0  0  0  0  0  0  0
   35.8152   -6.5945  -25.7755 H   0  0  0  0  0  0  0  0  0  0  0  0
   36.5381   -5.3698  -28.2632 H   0  0  0  0  0  0  0  0  0  0  0  0
   33.6243   -4.6776  -27.0269 H   0  0  0  0  0  0  0  0  0  0  0  0
   33.8415   -5.4549  -25.5014 H   0  0  0  0  0  0  0  0  0  0  0  0
   31.8577   -6.1690  -27.4708 H   0  0  0  0  0  0  0  0  0  0  0  0
  1  2  1  0
  2  3  2  0
  2  4  1  0
  4  5  4  0
  5  6  4  0
  6  7  4  0
  7  8  4  0
  4  9  4  0
  7 10  4  0
  9 10  4  0
 10 11  4  0
 11 12  1  0
  8 13  4  0
 11 13  4  0
 13 14  1  0
 14 15  1  0
 16 15  1  0
 16 17  1  0
 17 18  2  0
 18 19  1  0
 19 20  1  0
 16 21  1  0
 20 21  1  0
 21 22  1  0
 20 23  1  0
 23 24  1  0
  1 25  1  0
  5 26  1  0
  6 27  1  0
  9 28  1  0
 12 29  1  0
 12 30  1  0
 12 31  1  0
 14 32  1  0
 14 33  1  0
 16 34  1  1
 17 35  1  0
 18 36  1  0
 20 37  1  1
 21 38  1  1
 22 39  1  0
 23 40  1  0
 23 41  1  0
 24 42  1  0
M  CHG  1  11   1
M  END
