7BMI_U4B_A_802
     RDKit          3D

 13 13  0  0  0  0  0  0  0  0999 V2000
   59.4843   14.9759   16.0803 C   0  0  0  0  0  0  0  0  0  0  0  0
   59.5656   16.4227   16.2929 C   0  0  0  0  0  0  0  0  0  0  0  0
   60.2505   16.8425   17.4323 C   0  0  0  0  0  0  0  0  0  0  0  0
   60.3486   18.1996   17.6672 C   0  0  0  0  0  0  0  0  0  0  0  0
   59.1268   18.6676   15.7023 C   0  0  0  0  0  0  0  0  0  0  0  0
   58.5275   19.6280   14.7788 C   0  0  0  0  0  0  0  0  0  0  0  0
   59.0001   17.3245   15.4214 C   0  0  0  0  0  0  0  0  0  0  0  0
   58.3433   16.9079   14.3280 F   0  0  0  0  0  0  0  0  0  0  0  0
   59.7842   19.0881   16.7968 N   0  0  0  0  0  0  0  0  0  0  0  0
   60.1166   14.1057   16.9663 O   0  0  0  0  0  0  0  0  0  0  0  0
   58.8638   14.4547   15.1240 O   0  0  0  0  0  0  0  0  0  0  0  0
   58.6688   20.8592   14.9994 O   0  0  0  0  0  0  0  0  0  0  0  0
   57.8072   19.2091   13.6659 O   0  0  0  0  0  0  0  0  0  0  0  0
  1  2  1  0
  2  3  2  0
  3  4  1  0
  5  6  1  0
  2  7  1  0
  5  7  2  0
  7  8  1  0
  4  9  2  0
  5  9  1  0
  1 10  1  0
  1 11  2  0
  6 12  2  0
  6 13  1  0
M  END
$$$$
