7W6F_8I6_A_201
     RDKit          3D

 44 44  0  0  0  0  0  0  0  0999 V2000
    0.9239    1.8709    2.1304 C   0  0  0  0  0  0  0  0  0  0  0  0
    1.7681    2.8357    0.0435 C   0  0  0  0  0  0  0  0  0  0  0  0
    1.8921    2.6531    1.4426 C   0  0  0  0  0  0  0  0  0  0  0  0
    2.7755    3.3958    3.3069 C   0  0  0  0  0  0  0  0  0  0  0  0
    2.1018    2.6926    4.4812 C   0  0  0  0  0  0  0  0  0  0  0  0
    0.9667    1.7756    4.0030 C   0  0  0  0  0  0  0  0  0  0  0  0
    0.8064    1.7663    2.4727 C   0  0  0  0  0  0  0  0  0  0  0  0
    2.1003    2.0356    1.6790 C   0  0  0  0  0  0  0  0  0  0  0  0
    3.0305    3.0962    2.2941 C   0  0  0  0  0  0  0  0  0  0  0  0
    2.4494    3.7293    3.5717 C   0  0  0  0  0  0  0  0  0  0  0  0
    1.6685    2.7115    4.4291 C   0  0  0  0  0  0  0  0  0  0  0  0
    1.0125    1.5804    3.6164 C   0  0  0  0  0  0  0  0  0  0  0  0
   -0.1409    1.3049    1.4074 C   0  0  0  0  0  0  0  0  0  0  0  0
   -0.2525    1.4922    0.0310 C   0  0  0  0  0  0  0  0  0  0  0  0
    0.7055    2.2475   -0.6471 C   0  0  0  0  0  0  0  0  0  0  0  0
    3.0366    3.2504    2.1590 C   0  0  0  0  0  0  0  0  0  0  0  0
   -1.3205    0.9180   -0.6553 O   0  0  0  0  0  0  0  0  0  0  0  0
    2.6680    3.6150   -0.6881 O   0  0  0  0  0  0  0  0  0  0  0  0
    3.7601    2.5407    2.9074 O   0  0  0  0  0  0  0  0  0  0  0  0
    3.3201    4.6043    2.0056 O   0  0  0  0  0  0  0  0  0  0  0  0
    3.2021    2.6515    2.6014 H   0  0  0  0  0  0  0  0  0  0  0  0
    3.5979    4.0406    3.6823 H   0  0  0  0  0  0  0  0  0  0  0  0
    2.0436    4.0344    2.7701 H   0  0  0  0  0  0  0  0  0  0  0  0
    1.7001    3.4695    5.1656 H   0  0  0  0  0  0  0  0  0  0  0  0
    2.8636    2.0950    5.0275 H   0  0  0  0  0  0  0  0  0  0  0  0
    0.0079    2.1310    4.4400 H   0  0  0  0  0  0  0  0  0  0  0  0
    1.1277    0.7446    4.3749 H   0  0  0  0  0  0  0  0  0  0  0  0
    0.3801    0.7886    2.1633 H   0  0  0  0  0  0  0  0  0  0  0  0
    0.0581    2.5385    2.1901 H   0  0  0  0  0  0  0  0  0  0  0  0
    2.6593    1.0789    1.5866 H   0  0  0  0  0  0  0  0  0  0  0  0
    1.8416    2.3414    0.6432 H   0  0  0  0  0  0  0  0  0  0  0  0
    3.2712    3.8746    1.5435 H   0  0  0  0  0  0  0  0  0  0  0  0
    3.9862    2.5872    2.5470 H   0  0  0  0  0  0  0  0  0  0  0  0
    1.7473    4.5387    3.2730 H   0  0  0  0  0  0  0  0  0  0  0  0
    3.2578    4.1973    4.1731 H   0  0  0  0  0  0  0  0  0  0  0  0
    0.9169    3.2208    5.0679 H   0  0  0  0  0  0  0  0  0  0  0  0
    2.3859    2.2320    5.1307 H   0  0  0  0  0  0  0  0  0  0  0  0
   -0.0028    1.3841    4.0178 H   0  0  0  0  0  0  0  0  0  0  0  0
    1.5832    0.6429    3.7974 H   0  0  0  0  0  0  0  0  0  0  0  0
   -0.8847    0.6999    1.9116 H   0  0  0  0  0  0  0  0  0  0  0  0
    0.6180    2.3919   -1.7168 H   0  0  0  0  0  0  0  0  0  0  0  0
   -1.4331    1.0355   -1.6553 H   0  0  0  0  0  0  0  0  0  0  0  0
    3.4178    4.1445   -0.2634 H   0  0  0  0  0  0  0  0  0  0  0  0
    4.1033    5.0289    2.4875 H   0  0  0  0  0  0  0  0  0  0  0  0
  2  3  4  0
  1  3  4  0
  4  5  1  0
  5  6  1  0
  6  7  1  0
  7  8  1  0
  8  9  1  0
  9 10  1  0
 10 11  1  0
  1 12  1  0
 11 12  1  0
  1 13  4  0
 13 14  4  0
  2 15  4  0
 14 15  4  0
  3 16  1  0
 14 17  1  0
  2 18  1  0
 16 19  2  0
 16 20  1  0
  4 21  1  0
  4 22  1  0
  4 23  1  0
  5 24  1  0
  5 25  1  0
  6 26  1  0
  6 27  1  0
  7 28  1  0
  7 29  1  0
  8 30  1  0
  8 31  1  0
  9 32  1  0
  9 33  1  0
 10 34  1  0
 10 35  1  0
 11 36  1  0
 11 37  1  0
 12 38  1  0
 12 39  1  0
 13 40  1  0
 15 41  1  0
 17 42  1  0
 18 43  1  0
 20 44  1  0
M  END
