7OP9_06K_I_301
     RDKit          3D

 11 12  0  0  0  0  0  0  0  0999 V2000
  -31.7353  -20.3031  -25.8015 C   0  0  0  0  0  0  0  0  0  0  0  0
  -30.8748  -21.1422  -23.8396 C   0  0  0  0  0  0  0  0  0  0  0  0
  -31.1147  -19.9353  -23.2440 C   0  0  0  0  0  0  0  0  0  0  0  0
  -31.6938  -18.9127  -24.0257 C   0  0  0  0  0  0  0  0  0  0  0  0
  -30.2107  -21.2431  -21.7828 C   0  0  0  0  0  0  0  0  0  0  0  0
  -31.9917  -19.1356  -25.2764 N   0  0  0  0  0  0  0  0  0  0  0  0
  -31.1997  -21.3052  -25.1405 N   0  0  0  0  0  0  0  0  0  0  0  0
  -30.6869  -20.0236  -21.9549 N   0  0  0  0  0  0  0  0  0  0  0  0
  -30.3161  -21.9427  -22.9030 N   0  0  0  0  0  0  0  0  0  0  0  0
  -32.1441  -20.4996  -27.4919 Cl  0  0  0  0  0  0  0  0  0  0  0  0
  -32.0608  -17.3425  -23.3385 Cl  0  0  0  0  0  0  0  0  0  0  0  0
  2  3  1  0
  3  4  2  0
  1  6  2  0
  4  6  1  0
  1  7  1  0
  2  7  2  0
  3  8  1  0
  5  8  1  0
  2  9  1  0
  5  9  2  0
  1 10  1  0
  4 11  1  0
M  END
