7OP9_06K_I_301
     RDKit          3D

 11 12  0  0  0  0  0  0  0  0999 V2000
  -21.0753  -11.9014   -9.6854 C   0  0  0  0  0  0  0  0  0  0  0  0
  -19.7599  -11.3185  -11.5422 C   0  0  0  0  0  0  0  0  0  0  0  0
  -20.5480  -12.0926  -12.3685 C   0  0  0  0  0  0  0  0  0  0  0  0
  -21.6098  -12.7625  -11.7800 C   0  0  0  0  0  0  0  0  0  0  0  0
  -18.9979  -11.2002  -13.6189 C   0  0  0  0  0  0  0  0  0  0  0  0
  -21.8665  -12.6667  -10.4614 N   0  0  0  0  0  0  0  0  0  0  0  0
  -20.0187  -11.2253  -10.2282 N   0  0  0  0  0  0  0  0  0  0  0  0
  -20.0799  -12.0210  -13.6492 N   0  0  0  0  0  0  0  0  0  0  0  0
  -18.8199  -10.7894  -12.3556 N   0  0  0  0  0  0  0  0  0  0  0  0
  -21.4121  -11.7742   -7.9487 Cl  0  0  0  0  0  0  0  0  0  0  0  0
  -22.6103  -13.7489  -12.8458 Cl  0  0  0  0  0  0  0  0  0  0  0  0
  2  3  1  0
  3  4  2  0
  1  6  2  0
  4  6  1  0
  1  7  1  0
  2  7  2  0
  3  8  1  0
  5  8  1  0
  2  9  1  0
  5  9  2  0
  1 10  1  0
  4 11  1  0
M  END
$$$$
