6ZC3_JOR_B_401
     RDKit          3D

 23 23  0  0  0  0  0  0  0  0999 V2000
  -23.0422   43.4780    7.6161 C   0  0  0  0  0  0  0  0  0  0  0  0
  -24.4065   43.5969    8.7540 S   0  0  2  0  0  6  0  0  0  0  0  0
  -25.4766   44.4616    8.1599 O   0  0  0  0  0  0  0  0  0  0  0  0
  -23.9280   44.1992   10.0412 O   0  0  0  0  0  0  0  0  0  0  0  0
  -25.0073   42.1064    9.0394 N   0  0  0  0  0  0  0  0  0  0  0  0
  -24.2397   41.0305    8.8796 C   0  0  0  0  0  0  0  0  0  0  0  0
  -23.1828   41.0583    7.9756 C   0  0  0  0  0  0  0  0  0  0  0  0
  -22.3816   39.9346    7.8027 C   0  0  0  0  0  0  0  0  0  0  0  0
  -22.6439   38.7754    8.5246 C   0  0  0  0  0  0  0  0  0  0  0  0
  -21.8749   37.6817    8.3620 F   0  0  0  0  0  0  0  0  0  0  0  0
  -23.7023   38.7453    9.4222 C   0  0  0  0  0  0  0  0  0  0  0  0
  -24.5031   39.8676    9.5970 C   0  0  0  0  0  0  0  0  0  0  0  0
  -25.6641   39.8066   10.5873 C   0  0  0  0  0  0  0  0  0  0  0  0
  -25.4169   40.0120   11.7954 O   0  0  0  0  0  0  0  0  0  0  0  0
  -26.8052   39.5917   10.1235 O   0  0  0  0  0  0  0  0  0  0  0  0
  -22.6479   44.4549    7.4286 H   0  0  0  0  0  0  0  0  0  0  0  0
  -23.3809   43.0476    6.6969 H   0  0  0  0  0  0  0  0  0  0  0  0
  -22.2779   42.8600    8.0389 H   0  0  0  0  0  0  0  0  0  0  0  0
  -25.9418   42.0025    9.3311 H   0  0  0  0  0  0  0  0  0  0  0  0
  -22.9927   41.9146    7.4319 H   0  0  0  0  0  0  0  0  0  0  0  0
  -21.5922   39.9611    7.1384 H   0  0  0  0  0  0  0  0  0  0  0  0
  -23.8952   37.8868    9.9614 H   0  0  0  0  0  0  0  0  0  0  0  0
  -26.9176   39.4454    9.2049 H   0  0  0  0  0  0  0  0  0  0  0  0
  1  2  1  0
  2  3  2  0
  2  4  2  0
  2  5  1  1
  5  6  1  0
  6  7  4  0
  7  8  4  0
  8  9  4  0
  9 10  1  0
  9 11  4  0
 11 12  4  0
  6 12  4  0
 12 13  1  0
 13 14  2  0
 13 15  1  0
  1 16  1  0
  1 17  1  0
  1 18  1  0
  5 19  1  0
  7 20  1  0
  8 21  1  0
 11 22  1  0
 15 23  1  0
M  END
