7LZD_YHY_A_1805
     RDKit          3D

 56 59  0  0  0  0  0  0  0  0999 V2000
   -1.3017    5.3397    3.3527 C   0  0  0  0  0  0  0  0  0  0  0  0
   -0.5383    5.8844    2.2179 N   0  0  0  0  0  0  0  0  0  0  0  0
   -1.4493    6.5154    1.2436 C   0  0  0  0  0  0  0  0  0  0  0  0
    0.4000    4.8775    1.6519 C   0  0  1  0  0  0  0  0  0  0  0  0
    1.4687    5.4643    0.6807 C   0  0  0  0  0  0  0  0  0  0  0  0
    2.7733    4.6475    0.6657 C   0  0  0  0  0  0  0  0  0  0  0  0
    1.7841    2.8244    2.1308 C   0  0  0  0  0  0  0  0  0  0  0  0
    2.5023    3.2233    0.9090 N   0  0  0  0  0  0  0  0  0  0  0  0
    1.0428    4.0160    2.7592 C   0  0  0  0  0  0  0  0  0  0  0  0
    2.9071    2.2215   -0.0449 C   0  0  0  0  0  0  0  0  0  0  0  0
    2.0332    1.8235   -1.0717 C   0  0  0  0  0  0  0  0  0  0  0  0
    2.4199    0.8438   -2.0044 C   0  0  0  0  0  0  0  0  0  0  0  0
    3.6756    0.2338   -1.8736 C   0  0  0  0  0  0  0  0  0  0  0  0
    4.5446    0.6170   -0.8499 C   0  0  0  0  0  0  0  0  0  0  0  0
    4.1651    1.6060    0.0599 C   0  0  0  0  0  0  0  0  0  0  0  0
    1.5299    0.4112   -3.0482 N   0  0  0  0  0  0  0  0  0  0  0  0
    0.4121    1.1847   -3.5155 C   0  0  0  0  0  0  0  0  0  0  0  0
   -0.0900    0.9495   -4.6480 O   0  0  0  0  0  0  0  0  0  0  0  0
   -0.1887    2.2320   -2.6684 C   0  0  0  0  0  0  0  0  0  0  0  0
   -0.6792    2.0536   -1.3752 C   0  0  0  0  0  0  0  0  0  0  0  0
   -1.1141    3.3010   -0.9835 C   0  0  0  0  0  0  0  0  0  0  0  0
   -0.8786    4.1685   -2.0193 C   0  0  0  0  0  0  0  0  0  0  0  0
   -1.2068    5.5284   -1.9295 C   0  0  0  0  0  0  0  0  0  0  0  0
   -0.9410    6.4719   -3.0653 C   0  0  0  0  0  0  0  0  0  0  0  0
   -1.7908    5.9783   -0.7244 C   0  0  0  0  0  0  0  0  0  0  0  0
   -2.0297    5.0799    0.3382 C   0  0  0  0  0  0  0  0  0  0  0  0
   -1.6885    3.7223    0.2135 C   0  0  0  0  0  0  0  0  0  0  0  0
   -1.9116    2.8525    1.2297 F   0  0  0  0  0  0  0  0  0  0  0  0
   -0.3105    3.5250   -3.0552 N   0  0  0  0  0  4  0  0  0  0  0  0
   -1.9191    6.1387    3.8169 H   0  0  0  0  0  0  0  0  0  0  0  0
   -0.6115    4.9634    4.1378 H   0  0  0  0  0  0  0  0  0  0  0  0
   -1.9701    4.5125    3.0284 H   0  0  0  0  0  0  0  0  0  0  0  0
   -1.8646    7.4465    1.6842 H   0  0  0  0  0  0  0  0  0  0  0  0
   -0.9205    6.8118    0.3172 H   0  0  0  0  0  0  0  0  0  0  0  0
   -2.3044    5.8555    0.9837 H   0  0  0  0  0  0  0  0  0  0  0  0
   -0.2067    4.1581    1.0526 H   0  0  0  0  0  0  0  0  0  0  0  0
    1.0446    5.4780   -0.3471 H   0  0  0  0  0  0  0  0  0  0  0  0
    1.7340    6.5090    0.9311 H   0  0  0  0  0  0  0  0  0  0  0  0
    3.4450    5.0199    1.4697 H   0  0  0  0  0  0  0  0  0  0  0  0
    3.3093    4.8065   -0.2948 H   0  0  0  0  0  0  0  0  0  0  0  0
    1.0363    2.0410    1.8756 H   0  0  0  0  0  0  0  0  0  0  0  0
    2.4984    2.3992    2.8676 H   0  0  0  0  0  0  0  0  0  0  0  0
    0.2605    3.6402    3.4542 H   0  0  0  0  0  0  0  0  0  0  0  0
    1.7725    4.6111    3.3473 H   0  0  0  0  0  0  0  0  0  0  0  0
    1.0391    2.2480   -1.1154 H   0  0  0  0  0  0  0  0  0  0  0  0
    3.9831   -0.5355   -2.5708 H   0  0  0  0  0  0  0  0  0  0  0  0
    5.5153    0.1462   -0.7616 H   0  0  0  0  0  0  0  0  0  0  0  0
    4.8556    1.8952    0.8410 H   0  0  0  0  0  0  0  0  0  0  0  0
    1.7686   -0.4693   -3.5570 H   0  0  0  0  0  0  0  0  0  0  0  0
   -0.7033    1.1441   -0.7903 H   0  0  0  0  0  0  0  0  0  0  0  0
   -1.2880    7.4997   -2.8270 H   0  0  0  0  0  0  0  0  0  0  0  0
    0.1490    6.5073   -3.2734 H   0  0  0  0  0  0  0  0  0  0  0  0
   -1.4751    6.1233   -3.9740 H   0  0  0  0  0  0  0  0  0  0  0  0
   -2.0609    7.0198   -0.6034 H   0  0  0  0  0  0  0  0  0  0  0  0
   -2.4773    5.4402    1.2555 H   0  0  0  0  0  0  0  0  0  0  0  0
   -0.0183    3.9371   -3.9695 H   0  0  0  0  0  0  0  0  0  0  0  0
  1  2  1  0
  2  3  1  0
  2  4  1  0
  4  5  1  0
  5  6  1  0
  7  8  1  0
  6  8  1  0
  7  9  1  0
  4  9  1  0
  8 10  1  0
 10 11  4  0
 11 12  4  0
 12 13  4  0
 13 14  4  0
 14 15  4  0
 10 15  4  0
 12 16  1  0
 16 17  1  0
 17 18  2  0
 17 19  1  0
 19 20  4  0
 20 21  4  0
 21 22  4  0
 22 23  4  0
 23 24  1  0
 23 25  4  0
 25 26  4  0
 21 27  4  0
 26 27  4  0
 27 28  1  0
 19 29  4  0
 22 29  4  0
  1 30  1  0
  1 31  1  0
  1 32  1  0
  3 33  1  0
  3 34  1  0
  3 35  1  0
  4 36  1  6
  5 37  1  0
  5 38  1  0
  6 39  1  0
  6 40  1  0
  7 41  1  0
  7 42  1  0
  9 43  1  0
  9 44  1  0
 11 45  1  0
 13 46  1  0
 14 47  1  0
 15 48  1  0
 16 49  1  0
 20 50  1  0
 24 51  1  0
 24 52  1  0
 24 53  1  0
 25 54  1  0
 26 55  1  0
 29 56  1  0
M  CHG  1  29   1
M  END
