7F8T_FAD_A_512
     RDKit          3D

 86 91  0  0  0  0  0  0  0  0999 V2000
   25.4173   25.4899  104.0970 P   0  0  1  0  0  5  0  0  0  0  0  0
   25.5640   25.6541  105.5129 O   0  0  0  0  0  0  0  0  0  0  0  0
   26.7978   25.8208  103.3210 O   0  0  0  0  0  0  0  0  0  0  0  0
   24.8492   23.9635  103.7078 O   0  0  0  0  0  0  0  0  0  0  0  0
   23.4402   23.7669  103.4831 C   0  0  0  0  0  0  0  0  0  0  0  0
   22.7910   25.0389  103.5007 C   0  0  1  0  0  0  0  0  0  0  0  0
   21.5284   24.9694  102.8962 O   0  0  0  0  0  0  0  0  0  0  0  0
   22.5561   25.4782  104.7586 C   0  0  1  0  0  0  0  0  0  0  0  0
   23.7174   25.9864  105.3721 O   0  0  0  0  0  0  0  0  0  0  0  0
   21.5733   26.4314  104.5763 C   0  0  1  0  0  0  0  0  0  0  0  0
   22.1243   27.6500  104.0896 O   0  0  0  0  0  0  0  0  0  0  0  0
   20.7356   25.8874  103.6555 C   0  0  2  0  0  0  0  0  0  0  0  0
   19.6956   25.2420  104.2704 N   0  0  0  0  0  4  0  0  0  0  0  0
   19.5066   25.2225  105.5328 C   0  0  0  0  0  0  0  0  0  0  0  0
   18.4060   24.5140  105.7971 N   0  0  0  0  0  0  0  0  0  0  0  0
   17.9012   24.0740  104.5861 C   0  0  0  0  0  0  0  0  0  0  0  0
   16.8208   23.3168  104.1434 C   0  0  0  0  0  0  0  0  0  0  0  0
   15.8639   22.7658  105.0805 N   0  0  0  0  0  0  0  0  0  0  0  0
   16.6553   23.0961  102.8548 N   0  0  0  0  0  0  0  0  0  0  0  0
   17.5081   23.5810  101.9712 C   0  0  0  0  0  0  0  0  0  0  0  0
   18.5640   24.3139  102.3253 N   0  0  0  0  0  0  0  0  0  0  0  0
   18.7989   24.5820  103.6066 C   0  0  0  0  0  0  0  0  0  0  0  0
   22.4283   27.0354  104.1806 N   0  0  0  0  0  0  0  0  0  0  0  0
   22.1647   26.7529  105.4795 C   0  0  0  0  0  0  0  0  0  0  0  0
   20.8915   26.6811  105.8974 O   0  0  0  0  0  0  0  0  0  0  0  0
   23.1645   26.5573  106.3217 N   0  0  0  0  0  4  0  0  0  0  0  0
   24.4118   26.5935  105.9435 C   0  0  0  0  0  0  0  0  0  0  0  0
   25.3490   26.4101  106.8826 O   0  0  0  0  0  0  0  0  0  0  0  0
   24.7108   26.9325  104.6503 C   0  0  0  0  0  0  0  0  0  0  0  0
   25.9762   27.0258  104.3182 N   0  0  0  0  0  0  0  0  0  0  0  0
   26.2756   27.0524  103.0158 C   0  0  0  0  0  0  0  0  0  0  0  0
   27.6013   26.9071  102.6561 C   0  0  0  0  0  0  0  0  0  0  0  0
   27.9573   26.9424  101.3176 C   0  0  0  0  0  0  0  0  0  0  0  0
   29.4368   26.7850  100.9069 C   0  0  0  0  0  0  0  0  0  0  0  0
   26.9580   27.1234  100.3498 C   0  0  0  0  0  0  0  0  0  0  0  0
   27.3199   27.1685   98.8462 C   0  0  0  0  0  0  0  0  0  0  0  0
   25.6342   27.2704  100.7156 C   0  0  0  0  0  0  0  0  0  0  0  0
   25.2412   27.2491  102.0753 C   0  0  0  0  0  0  0  0  0  0  0  0
   24.0047   27.3688  102.4705 N   0  0  0  0  0  4  0  0  0  0  0  0
   23.7101   27.1353  103.7285 C   0  0  0  0  0  0  0  0  0  0  0  0
   22.8821   27.5304  101.4778 C   0  0  0  0  0  0  0  0  0  0  0  0
   23.2030   26.8748  100.1443 C   0  0  2  0  0  0  0  0  0  0  0  0
   23.0801   27.7167   99.1954 O   0  0  0  0  0  0  0  0  0  0  0  0
   22.3961   25.7245   99.8836 C   0  0  2  0  0  0  0  0  0  0  0  0
   21.4914   26.0151   98.9191 O   0  0  0  0  0  0  0  0  0  0  0  0
   21.7410   25.2591  101.0647 C   0  0  2  0  0  0  0  0  0  0  0  0
   20.8221   26.0437  101.4995 O   0  0  0  0  0  0  0  0  0  0  0  0
   22.7870   25.1757  102.1141 C   0  0  0  0  0  0  0  0  0  0  0  0
   22.3161   25.2144  103.4716 O   0  0  0  0  0  0  0  0  0  0  0  0
   22.6974   26.5718  104.4097 P   0  0  1  0  0  5  0  0  0  0  0  0
   21.9373   27.7631  104.0874 O   0  0  0  0  0  0  0  0  0  0  0  0
   22.5814   26.0177  105.9435 O   0  0  0  0  0  0  0  0  0  0  0  0
   24.2316   26.5864  103.8832 O   0  0  0  0  0  0  0  0  0  0  0  0
   27.4457   25.1219  103.5014 H   0  0  0  0  0  0  0  0  0  0  0  0
   23.0359   23.1458  104.2549 H   0  0  0  0  0  0  0  0  0  0  0  0
   23.2851   23.2919  102.5370 H   0  0  0  0  0  0  0  0  0  0  0  0
   23.4545   25.6977  102.9803 H   0  0  0  0  0  0  0  0  0  0  0  0
   22.2497   24.7016  105.4279 H   0  0  0  0  0  0  0  0  0  0  0  0
   24.0782   26.7079  104.8336 H   0  0  0  0  0  0  0  0  0  0  0  0
   21.0758   26.6731  105.4923 H   0  0  0  0  0  0  0  0  0  0  0  0
   22.5893   27.4839  103.2546 H   0  0  0  0  0  0  0  0  0  0  0  0
   20.3023   26.6375  103.0275 H   0  0  0  0  0  0  0  0  0  0  0  0
   20.1075   25.6805  106.2357 H   0  0  0  0  0  0  0  0  0  0  0  0
   15.9745   22.9223  106.0462 H   0  0  0  0  0  0  0  0  0  0  0  0
   15.1029   22.2347  104.7519 H   0  0  0  0  0  0  0  0  0  0  0  0
   17.3516   23.3856  100.9700 H   0  0  0  0  0  0  0  0  0  0  0  0
   22.9601   26.3778  107.2679 H   0  0  0  0  0  0  0  0  0  0  0  0
   28.3233   26.7728  103.3811 H   0  0  0  0  0  0  0  0  0  0  0  0
   30.0385   26.6585  101.7826 H   0  0  0  0  0  0  0  0  0  0  0  0
   29.7553   27.6593  100.3785 H   0  0  0  0  0  0  0  0  0  0  0  0
   29.5423   25.9281  100.2748 H   0  0  0  0  0  0  0  0  0  0  0  0
   28.3758   27.0406   98.7295 H   0  0  0  0  0  0  0  0  0  0  0  0
   27.0277   28.1131   98.4373 H   0  0  0  0  0  0  0  0  0  0  0  0
   26.8065   26.3830   98.3320 H   0  0  0  0  0  0  0  0  0  0  0  0
   24.9180   27.3982   99.9836 H   0  0  0  0  0  0  0  0  0  0  0  0
   22.7106   28.5743  101.3171 H   0  0  0  0  0  0  0  0  0  0  0  0
   22.0132   27.0531  101.8805 H   0  0  0  0  0  0  0  0  0  0  0  0
   24.2179   26.5409  100.2023 H   0  0  0  0  0  0  0  0  0  0  0  0
   22.1589   28.0165   99.1465 H   0  0  0  0  0  0  0  0  0  0  0  0
   23.0353   24.9356   99.5460 H   0  0  0  0  0  0  0  0  0  0  0  0
   20.9116   26.7302   99.2245 H   0  0  0  0  0  0  0  0  0  0  0  0
   21.2673   24.3280  100.8331 H   0  0  0  0  0  0  0  0  0  0  0  0
   21.2105   26.9041  101.7226 H   0  0  0  0  0  0  0  0  0  0  0  0
   23.4572   25.9981  101.9756 H   0  0  0  0  0  0  0  0  0  0  0  0
   23.2444   24.2160  101.9926 H   0  0  0  0  0  0  0  0  0  0  0  0
   21.6517   26.0244  106.2202 H   0  0  0  0  0  0  0  0  0  0  0  0
  1  2  2  0
  1  3  1  6
  1  4  1  0
  4  5  1  0
  6  5  1  0
  6  7  1  0
  6  8  1  0
  8  9  1  0
  8 10  1  0
 10 11  1  0
  7 12  1  0
 10 12  1  0
 12 13  1  0
 13 14  4  0
 14 15  4  0
 15 16  4  0
 16 17  4  0
 17 18  1  0
 17 19  4  0
 19 20  4  0
 20 21  4  0
 13 22  4  0
 16 22  4  0
 21 22  4  0
 23 24  4  0
 24 25  2  0
 24 26  4  0
 26 27  4  0
 27 28  2  0
 27 29  4  0
 29 30  4  0
 30 31  4  0
 31 32  4  0
 32 33  4  0
 33 34  1  0
 33 35  4  0
 35 36  1  0
 35 37  4  0
 31 38  4  0
 37 38  4  0
 38 39  4  0
 23 40  4  0
 29 40  1  0
 39 40  4  0
 39 41  1  0
 41 42  1  0
 42 43  1  0
 42 44  1  0
 44 45  1  0
 44 46  1  0
 46 47  1  0
 46 48  1  0
 48 49  1  0
 50 49  1  6
 50 51  2  0
 50 52  1  0
  1 53  1  0
 50 53  1  0
  3 54  1  0
  5 55  1  0
  5 56  1  0
  6 57  1  6
  8 58  1  1
  9 59  1  0
 10 60  1  1
 11 61  1  0
 12 62  1  6
 14 63  1  0
 18 64  1  0
 18 65  1  0
 20 66  1  0
 26 67  1  0
 32 68  1  0
 34 69  1  0
 34 70  1  0
 34 71  1  0
 36 72  1  0
 36 73  1  0
 36 74  1  0
 37 75  1  0
 41 76  1  0
 41 77  1  0
 42 78  1  1
 43 79  1  0
 44 80  1  6
 45 81  1  0
 46 82  1  6
 47 83  1  0
 48 84  1  0
 48 85  1  0
 52 86  1  0
M  CHG  3  13   1  26   1  39   1
M  END
