7QSW_CAP_A_501
     RDKit          3D

 21 20  0  0  0  0  0  0  0  0999 V2000
   80.2360   72.7640   36.8510 C   0  0  0  0  0  0  0  0  0  0  0  0
   79.6340   71.7800   37.8460 C   0  0  1  0  0  0  0  0  0  0  0  0
   78.1380   72.1600   38.1490 C   0  0  1  0  0  0  0  0  0  0  0  0
   77.2280   72.1620   36.8880 C   0  0  1  0  0  0  0  0  0  0  0  0
   75.7740   71.6940   37.2400 C   0  0  0  0  0  0  0  0  0  0  0  0
   79.7160   70.3420   37.2480 C   0  0  0  0  0  0  0  0  0  0  0  0
   81.5930   72.5220   36.7620 O   0  0  0  0  0  0  0  0  0  0  0  0
   80.3400   71.7450   39.0530 O   0  0  0  0  0  0  0  0  0  0  0  0
   77.6630   71.2880   39.1390 O   0  0  0  0  0  0  0  0  0  0  0  0
   77.1550   73.4400   36.3160 O   0  0  0  0  0  0  0  0  0  0  0  0
   75.0160   71.7840   36.0390 O   0  0  0  0  0  0  0  0  0  0  0  0
   79.7490   70.1870   36.0120 O   0  0  0  0  0  0  0  0  0  0  0  0
   79.7380   69.4020   38.0830 O   0  0  0  0  0  0  0  0  0  0  0  0
   82.4470   73.6660   35.7740 P   0  0  0  0  0  0  0  0  0  0  0  0
   73.6280   72.7650   36.1210 P   0  0  0  0  0  0  0  0  0  0  0  0
   81.7950   73.4650   34.4070 O   0  0  0  0  0  0  0  0  0  0  0  0
   82.2200   75.0520   36.3980 O   0  0  0  0  0  0  0  0  0  0  0  0
   83.8810   73.1720   35.8580 O   0  0  0  0  0  0  0  0  0  0  0  0
   73.2080   72.7940   34.6530 O   0  0  0  0  0  0  0  0  0  0  0  0
   72.6290   72.0850   37.0320 O   0  0  0  0  0  0  0  0  0  0  0  0
   74.1720   74.1050   36.6200 O   0  0  0  0  0  0  0  0  0  0  0  0
  1  2  1  0
  2  3  1  0
  3  4  1  0
  4  5  1  0
  2  6  1  0
  1  7  1  0
  2  8  1  1
  3  9  1  1
  4 10  1  1
  5 11  1  0
  6 12  2  0
  6 13  1  0
  7 14  1  0
 11 15  1  0
 14 16  2  0
 14 17  1  0
 14 18  1  0
 15 19  2  0
 15 20  1  0
 15 21  1  0
M  END
$$$$
7QSW_CAP_C_501
     RDKit          3D

 21 20  0  0  0  0  0  0  0  0999 V2000
   54.0110  105.1730   69.3840 C   0  0  0  0  0  0  0  0  0  0  0  0
   53.7050  103.6780   69.2630 C   0  0  1  0  0  0  0  0  0  0  0  0
   53.3660  103.0570   70.6610 C   0  0  1  0  0  0  0  0  0  0  0  0
   52.1590  103.7390   71.3420 C   0  0  1  0  0  0  0  0  0  0  0  0
   51.3820  102.7330   72.2290 C   0  0  0  0  0  0  0  0  0  0  0  0
   52.4860  103.4840   68.3100 C   0  0  0  0  0  0  0  0  0  0  0  0
   54.4290  105.6490   68.1170 O   0  0  0  0  0  0  0  0  0  0  0  0
   54.7630  102.9700   68.6780 O   0  0  0  0  0  0  0  0  0  0  0  0
   53.1760  101.6920   70.5100 O   0  0  0  0  0  0  0  0  0  0  0  0
   52.5560  104.8370   72.1330 O   0  0  0  0  0  0  0  0  0  0  0  0
   50.3340  103.4610   72.8670 O   0  0  0  0  0  0  0  0  0  0  0  0
   52.4180  102.3630   67.7520 O   0  0  0  0  0  0  0  0  0  0  0  0
   51.6880  104.4210   68.1300 O   0  0  0  0  0  0  0  0  0  0  0  0
   54.9750  107.2670   68.0970 P   0  0  0  0  0  0  0  0  0  0  0  0
   50.3250  103.3740   74.5650 P   0  0  0  0  0  0  0  0  0  0  0  0
   55.4590  107.5080   66.6770 O   0  0  0  0  0  0  0  0  0  0  0  0
   56.0830  107.3790   69.1450 O   0  0  0  0  0  0  0  0  0  0  0  0
   53.6870  108.0240   68.4140 O   0  0  0  0  0  0  0  0  0  0  0  0
   49.2230  104.3710   74.9150 O   0  0  0  0  0  0  0  0  0  0  0  0
   50.0060  101.9640   74.9610 O   0  0  0  0  0  0  0  0  0  0  0  0
   51.7370  103.8570   74.9220 O   0  0  0  0  0  0  0  0  0  0  0  0
  1  2  1  0
  2  3  1  0
  3  4  1  0
  4  5  1  0
  2  6  1  0
  1  7  1  0
  2  8  1  6
  3  9  1  6
  4 10  1  1
  5 11  1  0
  6 12  2  0
  6 13  1  0
  7 14  1  0
 11 15  1  0
 14 16  2  0
 14 17  1  0
 14 18  1  0
 15 19  2  0
 15 20  1  0
 15 21  1  0
M  END
$$$$
7QSW_CAP_G_501
     RDKit          3D

 21 20  0  0  0  0  0  0  0  0999 V2000
   81.0120   86.0260  110.6620 C   0  0  0  0  0  0  0  0  0  0  0  0
   79.8700   85.2510  109.9860 C   0  0  1  0  0  0  0  0  0  0  0  0
   80.2040   83.7260  109.8960 C   0  0  1  0  0  0  0  0  0  0  0  0
   80.4710   83.0690  111.2700 C   0  0  1  0  0  0  0  0  0  0  0  0
   79.9960   81.5970  111.2850 C   0  0  0  0  0  0  0  0  0  0  0  0
   78.5870   85.4650  110.8240 C   0  0  0  0  0  0  0  0  0  0  0  0
   80.7800   87.3940  110.5180 O   0  0  0  0  0  0  0  0  0  0  0  0
   79.5730   85.7260  108.7090 O   0  0  0  0  0  0  0  0  0  0  0  0
   79.1370   83.0940  109.1990 O   0  0  0  0  0  0  0  0  0  0  0  0
   81.8300   83.0860  111.6070 O   0  0  0  0  0  0  0  0  0  0  0  0
   80.2830   81.0750  112.5850 O   0  0  0  0  0  0  0  0  0  0  0  0
   77.5040   85.3450  110.2040 O   0  0  0  0  0  0  0  0  0  0  0  0
   78.6860   85.7690  112.0280 O   0  0  0  0  0  0  0  0  0  0  0  0
   82.0350   88.3660  111.1190 P   0  0  0  0  0  0  0  0  0  0  0  0
   81.2550   79.6600  112.5520 P   0  0  0  0  0  0  0  0  0  0  0  0
   83.2810   87.9850  110.3270 O   0  0  0  0  0  0  0  0  0  0  0  0
   82.0390   87.9840  112.6040 O   0  0  0  0  0  0  0  0  0  0  0  0
   81.5400   89.7900  110.8880 O   0  0  0  0  0  0  0  0  0  0  0  0
   82.4550   80.0680  111.7380 O   0  0  0  0  0  0  0  0  0  0  0  0
   80.4090   78.5200  111.9830 O   0  0  0  0  0  0  0  0  0  0  0  0
   81.5370   79.5190  114.0510 O   0  0  0  0  0  0  0  0  0  0  0  0
  1  2  1  0
  2  3  1  0
  3  4  1  0
  4  5  1  0
  2  6  1  0
  1  7  1  0
  2  8  1  6
  3  9  1  1
  4 10  1  6
  5 11  1  0
  6 12  2  0
  6 13  1  0
  7 14  1  0
 11 15  1  0
 14 16  2  0
 14 17  1  0
 14 18  1  0
 15 19  2  0
 15 20  1  0
 15 21  1  0
M  END
$$$$
7QSW_CAP_E_501
     RDKit          3D

 21 20  0  0  0  0  0  0  0  0999 V2000
  107.3360   53.4810   78.1100 C   0  0  0  0  0  0  0  0  0  0  0  0
  105.8750   53.2330   78.5390 C   0  0  1  0  0  0  0  0  0  0  0  0
  105.0370   52.6470   77.3690 C   0  0  1  0  0  0  0  0  0  0  0  0
  105.6220   51.3520   76.7680 C   0  0  1  0  0  0  0  0  0  0  0  0
  104.4840   50.4460   76.2300 C   0  0  0  0  0  0  0  0  0  0  0  0
  105.8880   52.2500   79.7350 C   0  0  0  0  0  0  0  0  0  0  0  0
  107.9840   54.1790   79.1160 O   0  0  0  0  0  0  0  0  0  0  0  0
  105.2440   54.3770   78.9910 O   0  0  0  0  0  0  0  0  0  0  0  0
  103.7180   52.4580   77.8210 O   0  0  0  0  0  0  0  0  0  0  0  0
  106.4970   51.6200   75.7220 O   0  0  0  0  0  0  0  0  0  0  0  0
  105.0880   49.2810   75.7270 O   0  0  0  0  0  0  0  0  0  0  0  0
  106.8520   51.4810   79.8850 O   0  0  0  0  0  0  0  0  0  0  0  0
  104.8980   52.3200   80.5080 O   0  0  0  0  0  0  0  0  0  0  0  0
  109.5850   54.6690   78.7190 P   0  0  0  0  0  0  0  0  0  0  0  0
  104.6470   48.9360   74.0860 P   0  0  0  0  0  0  0  0  0  0  0  0
  109.4520   55.5610   77.4810 O   0  0  0  0  0  0  0  0  0  0  0  0
  110.2890   53.3250   78.4840 O   0  0  0  0  0  0  0  0  0  0  0  0
  110.0790   55.3930   79.9630 O   0  0  0  0  0  0  0  0  0  0  0  0
  104.9850   50.2350   73.3630 O   0  0  0  0  0  0  0  0  0  0  0  0
  103.1870   48.5520   74.0680 O   0  0  0  0  0  0  0  0  0  0  0  0
  105.6170   47.8050   73.7830 O   0  0  0  0  0  0  0  0  0  0  0  0
  1  2  1  0
  2  3  1  0
  3  4  1  0
  4  5  1  0
  2  6  1  0
  1  7  1  0
  2  8  1  1
  3  9  1  1
  4 10  1  6
  5 11  1  0
  6 12  2  0
  6 13  1  0
  7 14  1  0
 11 15  1  0
 14 16  2  0
 14 17  1  0
 14 18  1  0
 15 19  2  0
 15 20  1  0
 15 21  1  0
M  END
$$$$
