1MZC_BNE_B_1003
     RDKit          3D

 68 71  0  0  0  0  0  0  0  0999 V2000
   14.5592  134.3963   -6.2512 C   0  0  1  0  0  0  0  0  0  0  0  0
   14.2862  135.1338   -4.9170 C   0  0  0  0  0  0  0  0  0  0  0  0
   16.0621  134.1745   -6.4879 C   0  0  0  0  0  0  0  0  0  0  0  0
   13.8829  132.9793   -6.3471 C   0  0  2  0  0  0  0  0  0  0  0  0
   13.9256  135.2622   -7.3943 C   0  0  1  0  0  0  0  0  0  0  0  0
   14.9043  134.7033   -3.7162 C   0  0  0  0  0  0  0  0  0  0  0  0
   13.5613  136.3482   -4.8761 C   0  0  0  0  0  0  0  0  0  0  0  0
   16.8817  133.3888   -5.5823 N   0  0  0  0  0  0  0  0  0  0  0  0
   16.5887  134.6102   -7.5504 O   0  0  0  0  0  0  0  0  0  0  0  0
   14.5774  131.8028   -5.6285 C   0  0  2  0  0  0  0  0  0  0  0  0
   12.4857  135.7335   -7.1459 C   0  0  2  0  0  0  0  0  0  0  0  0
   14.6810  135.3761   -2.5021 C   0  0  0  0  0  0  0  0  0  0  0  0
   13.3409  137.0132   -3.6684 C   0  0  0  0  0  0  0  0  0  0  0  0
   16.4285  132.9677   -4.2397 C   0  0  1  0  0  0  0  0  0  0  0  0
   18.2233  132.9970   -6.0355 C   0  0  1  0  0  0  0  0  0  0  0  0
   15.1199  132.1436   -4.2388 C   0  0  1  0  0  0  0  0  0  0  0  0
   15.2082  134.9061   -1.2922 O   0  0  0  0  0  0  0  0  0  0  0  0
   13.8763  136.5151   -2.4839 C   0  0  0  0  0  0  0  0  0  0  0  0
   16.1540  133.8755   -1.1745 C   0  0  0  0  0  0  0  0  0  0  0  0
   16.0720  132.7700   -2.0333 C   0  0  0  0  0  0  0  0  0  0  0  0
   17.1476  133.9105   -0.1780 C   0  0  0  0  0  0  0  0  0  0  0  0
   16.9882  131.7220   -1.9118 C   0  0  0  0  0  0  0  0  0  0  0  0
   15.0529  132.7061   -3.0499 C   0  0  0  0  0  0  0  0  0  0  0  0
   18.0795  132.8566   -0.0450 C   0  0  0  0  0  0  0  0  0  0  0  0
   17.9786  131.7634   -0.9302 C   0  0  0  0  0  0  0  0  0  0  0  0
   14.2340  132.6572   -3.8662 N   0  0  0  0  0  0  0  0  0  0  0  0
   19.1498  132.8335    1.0615 C   0  0  2  0  0  0  0  0  0  0  0  0
   20.3619  133.6758    0.6279 C   0  0  0  0  0  0  0  0  0  0  0  0
   19.5102  131.3482    1.2965 C   0  0  2  0  0  0  0  0  0  0  0  0
   18.6158  133.3889    2.3143 N   0  0  0  0  0  0  0  0  0  0  0  0
   20.4674  135.0271    0.5956 N   0  0  0  0  0  0  0  0  0  0  0  0
   21.4914  133.1660    0.0045 C   0  0  0  0  0  0  0  0  0  0  0  0
   21.6554  135.2853    0.0125 C   0  0  0  0  0  0  0  0  0  0  0  0
   19.5229  136.0499    1.0406 C   0  0  1  0  0  0  0  0  0  0  0  0
   22.3071  134.1699   -0.3668 N   0  0  0  0  0  0  0  0  0  0  0  0
   13.8442  132.6805   -7.4193 H   0  0  0  0  0  0  0  0  0  0  0  0
   12.8191  133.0051   -6.0481 H   0  0  0  0  0  0  0  0  0  0  0  0
   14.5532  136.1616   -7.5815 H   0  0  0  0  0  0  0  0  0  0  0  0
   13.9237  134.6780   -8.3414 H   0  0  0  0  0  0  0  0  0  0  0  0
   15.5303  133.8209   -3.7107 H   0  0  0  0  0  0  0  0  0  0  0  0
   13.1631  136.8078   -5.7656 H   0  0  0  0  0  0  0  0  0  0  0  0
   15.3951  131.3933   -6.2614 H   0  0  0  0  0  0  0  0  0  0  0  0
   13.8345  130.9824   -5.5214 H   0  0  0  0  0  0  0  0  0  0  0  0
   11.7645  135.1294   -7.7345 H   0  0  0  0  0  0  0  0  0  0  0  0
   12.3849  136.7905   -7.4705 H   0  0  0  0  0  0  0  0  0  0  0  0
   12.2188  135.6738   -6.0715 H   0  0  0  0  0  0  0  0  0  0  0  0
   12.7607  137.9280   -3.6539 H   0  0  0  0  0  0  0  0  0  0  0  0
   17.2103  132.3555   -3.7406 H   0  0  0  0  0  0  0  0  0  0  0  0
   16.3193  133.8531   -3.5842 H   0  0  0  0  0  0  0  0  0  0  0  0
   18.1377  132.3555   -6.9379 H   0  0  0  0  0  0  0  0  0  0  0  0
   18.8174  133.9017   -6.2856 H   0  0  0  0  0  0  0  0  0  0  0  0
   18.7818  132.4344   -5.2604 H   0  0  0  0  0  0  0  0  0  0  0  0
   14.3382  132.6648   -3.6469 H   0  0  0  0  0  0  0  0  0  0  0  0
   15.3119  131.1846   -3.7077 H   0  0  0  0  0  0  0  0  0  0  0  0
   13.6933  137.0345   -1.5516 H   0  0  0  0  0  0  0  0  0  0  0  0
   17.1597  134.7488    0.5037 H   0  0  0  0  0  0  0  0  0  0  0  0
   16.9343  130.8672   -2.5756 H   0  0  0  0  0  0  0  0  0  0  0  0
   18.6697  130.9329   -0.8546 H   0  0  0  0  0  0  0  0  0  0  0  0
   19.5938  131.1244    2.3822 H   0  0  0  0  0  0  0  0  0  0  0  0
   20.4835  131.1042    0.8164 H   0  0  0  0  0  0  0  0  0  0  0  0
   18.7692  130.6625    0.8400 H   0  0  0  0  0  0  0  0  0  0  0  0
   18.4183  134.4068    2.1791 H   0  0  0  0  0  0  0  0  0  0  0  0
   19.3433  133.3335    3.0631 H   0  0  0  0  0  0  0  0  0  0  0  0
   21.7017  132.1230   -0.1900 H   0  0  0  0  0  0  0  0  0  0  0  0
   22.0419  136.2821   -0.1579 H   0  0  0  0  0  0  0  0  0  0  0  0
   18.4816  135.6870    0.9256 H   0  0  0  0  0  0  0  0  0  0  0  0
   19.7321  136.3274    2.0942 H   0  0  0  0  0  0  0  0  0  0  0  0
   19.6267  136.9680    0.4244 H   0  0  0  0  0  0  0  0  0  0  0  0
  1  2  1  1
  1  3  1  0
  1  4  1  0
  1  5  1  0
  2  6  2  0
  2  7  1  0
  3  8  1  0
  3  9  2  0
  4 10  1  0
  5 11  1  0
  6 12  1  0
  7 13  2  0
  8 14  1  0
  8 15  1  0
 10 16  1  0
 14 16  1  0
 12 17  1  0
 12 18  2  0
 13 18  1  0
 17 19  1  0
 19 20  2  0
 19 21  1  0
 20 22  1  0
 20 23  1  0
 21 24  2  0
 22 25  2  0
 24 25  1  0
 23 26  3  0
 24 27  1  0
 27 28  1  0
 27 29  1  0
 27 30  1  1
 28 31  1  0
 28 32  2  0
 31 33  1  0
 31 34  1  0
 32 35  1  0
 33 35  2  0
  4 36  1  6
  4 37  1  0
  5 38  1  6
  5 39  1  0
  6 40  1  0
  7 41  1  0
 10 42  1  6
 10 43  1  0
 11 44  1  6
 11 45  1  0
 11 46  1  0
 13 47  1  0
 14 48  1  1
 14 49  1  0
 15 50  1  6
 15 51  1  0
 15 52  1  0
 16 53  1  1
 16 54  1  0
 18 55  1  0
 21 56  1  0
 22 57  1  0
 25 58  1  0
 29 59  1  1
 29 60  1  0
 29 61  1  0
 30 62  1  0
 30 63  1  0
 32 64  1  0
 33 65  1  0
 34 66  1  1
 34 67  1  0
 34 68  1  0
M  END
