1T46_STI_A_3
     RDKit          3D

 37 41  0  0  0  0  0  0  0  0999 V2000
   35.5853   23.4057   41.7003 C   0  0  0  0  0  0  0  0  0  0  0  0
   35.4452   24.0173   40.4531 C   0  0  0  0  0  0  0  0  0  0  0  0
   34.8426   25.2722   40.3775 C   0  0  0  0  0  0  0  0  0  0  0  0
   34.3731   25.8957   41.5296 C   0  0  0  0  0  0  0  0  0  0  0  0
   34.5124   25.2806   42.7149 N   0  0  0  0  0  0  0  0  0  0  0  0
   35.1033   24.0718   42.8217 C   0  0  0  0  0  0  0  0  0  0  0  0
   34.6711   25.9452   39.0714 C   0  0  0  0  0  0  0  0  0  0  0  0
   34.9801   25.3016   37.8733 C   0  0  0  0  0  0  0  0  0  0  0  0
   34.7705   25.9936   36.6829 C   0  0  0  0  0  0  0  0  0  0  0  0
   34.2975   27.2533   36.7024 N   0  0  0  0  0  0  0  0  0  0  0  0
   34.0299   27.8618   37.8840 C   0  0  0  0  0  0  0  0  0  0  0  0
   34.2040   27.2073   39.0522 N   0  0  0  0  0  0  0  0  0  0  0  0
   33.5491   29.1157   37.9533 N   0  0  0  0  0  0  0  0  0  0  0  0
   33.4986   29.9625   36.8956 C   0  0  0  0  0  0  0  0  0  0  0  0
   34.6510   30.6274   36.4787 C   0  0  0  0  0  0  0  0  0  0  0  0
   34.5835   31.5140   35.4098 C   0  0  0  0  0  0  0  0  0  0  0  0
   33.3728   31.7472   34.7547 C   0  0  0  0  0  0  0  0  0  0  0  0
   32.2194   31.0828   35.1650 C   0  0  0  0  0  0  0  0  0  0  0  0
   32.2841   30.2064   36.2506 C   0  0  0  0  0  0  0  0  0  0  0  0
   31.0284   31.3851   34.4849 N   0  0  0  0  0  0  0  0  0  0  0  0
   29.8157   31.4020   35.0295 C   0  0  0  0  0  0  0  0  0  0  0  0
   28.6618   31.8397   34.1841 C   0  0  0  0  0  0  0  0  0  0  0  0
   27.4430   32.1395   34.7938 C   0  0  0  0  0  0  0  0  0  0  0  0
   26.3698   32.5509   34.0094 C   0  0  0  0  0  0  0  0  0  0  0  0
   26.5272   32.6622   32.6283 C   0  0  0  0  0  0  0  0  0  0  0  0
   27.7455   32.3733   32.0171 C   0  0  0  0  0  0  0  0  0  0  0  0
   28.8167   31.9651   32.8071 C   0  0  0  0  0  0  0  0  0  0  0  0
   25.3611   33.1201   31.7887 C   0  0  0  0  0  0  0  0  0  0  0  0
   25.2541   32.4181   30.5173 N   0  0  0  0  0  0  0  0  0  0  0  0
   24.8052   31.0308   30.5791 C   0  0  0  0  0  0  0  0  0  0  0  0
   25.0130   30.3822   29.2176 C   0  0  0  0  0  0  0  0  0  0  0  0
   24.3431   31.2165   28.2296 N   0  0  0  0  0  0  0  0  0  0  0  0
   24.1014   30.5428   26.9578 C   0  0  0  0  0  0  0  0  0  0  0  0
   24.7389   32.6162   28.1207 C   0  0  0  0  0  0  0  0  0  0  0  0
   24.6794   33.2808   29.4885 C   0  0  0  0  0  0  0  0  0  0  0  0
   29.6123   31.0953   36.1843 O   0  0  0  0  0  0  0  0  0  0  0  0
   35.9780   30.4044   37.1689 C   0  0  0  0  0  0  0  0  0  0  0  0
  1  2  2  0
  2  3  1  0
  3  4  2  0
  4  5  1  0
  1  6  1  0
  5  6  2  0
  3  7  1  0
  7  8  2  0
  8  9  1  0
  9 10  2  0
 10 11  1  0
  7 12  1  0
 11 12  2  0
 11 13  1  0
 13 14  1  0
 14 15  2  0
 15 16  1  0
 16 17  2  0
 17 18  1  0
 14 19  1  0
 18 19  2  0
 18 20  1  0
 20 21  1  0
 21 22  1  0
 22 23  2  0
 23 24  1  0
 24 25  2  0
 25 26  1  0
 22 27  1  0
 26 27  2  0
 25 28  1  0
 28 29  1  0
 29 30  1  0
 30 31  1  0
 31 32  1  0
 32 33  1  0
 32 34  1  0
 29 35  1  0
 34 35  1  0
 21 36  2  0
 15 37  1  0
M  END
