7LB3_XXS_A_1701
     RDKit          3D

 53 57  0  0  0  0  0  0  0  0999 V2000
   14.4239   18.0809   65.4049 C   0  0  1  0  0  0  0  0  0  0  0  0
   14.1078   20.5730   64.0334 C   0  0  0  0  0  0  0  0  0  0  0  0
   14.3779   18.4389   66.8999 C   0  0  0  0  0  0  0  0  0  0  0  0
   19.2139   18.3808   64.9996 C   0  0  0  0  0  0  0  0  0  0  0  0
   22.0984   20.8262   64.6366 C   0  0  0  0  0  0  0  0  0  0  0  0
   22.7329   20.3569   63.4845 C   0  0  0  0  0  0  0  0  0  0  0  0
   22.2265   19.2391   62.7695 C   0  0  0  0  0  0  0  0  0  0  0  0
   20.8562   17.5199   62.3100 C   0  0  0  0  0  0  0  0  0  0  0  0
   19.5295   12.9593   67.2810 C   0  0  0  0  0  0  0  0  0  0  0  0
   18.4706   15.3493   67.0150 C   0  0  2  0  0  0  0  0  0  0  0  0
   17.4830   14.3332   67.5810 C   0  0  0  0  0  0  0  0  0  0  0  0
   17.9962   15.4737   68.4579 C   0  0  0  0  0  0  0  0  0  0  0  0
   18.3343   16.6296   66.1794 C   0  0  0  0  0  0  0  0  0  0  0  0
   17.0216   17.0539   65.9118 C   0  0  0  0  0  0  0  0  0  0  0  0
   16.9215   18.2091   65.1420 C   0  0  0  0  0  0  0  0  0  0  0  0
   13.1441   18.5654   64.7242 C   0  0  0  0  0  0  0  0  0  0  0  0
   15.4507   20.2196   64.6951 C   0  0  0  0  0  0  0  0  0  0  0  0
   20.4450   19.0807   64.4041 C   0  0  0  0  0  0  0  0  0  0  0  0
   20.9443   20.1831   65.1170 C   0  0  0  0  0  0  0  0  0  0  0  0
   21.0938   18.5952   63.2278 C   0  0  0  0  0  0  0  0  0  0  0  0
   20.1822   14.3016   65.1245 N   0  0  0  0  0  0  0  0  0  0  0  0
   15.6020   18.7497   64.8356 N   0  0  0  0  0  0  0  0  0  0  0  0
   18.0061   18.8371   64.6909 N   0  0  0  0  0  0  0  0  0  0  0  0
   21.8012   17.5575   61.3749 N   0  0  0  0  0  0  0  0  0  0  0  0
   22.6344   18.5975   61.6453 N   0  0  0  0  0  4  0  0  0  0  0  0
   19.3972   17.2690   65.6930 N   0  0  0  0  0  0  0  0  0  0  0  0
   13.0811   19.9633   64.7497 O   0  0  0  0  0  0  0  0  0  0  0  0
   21.2658   15.2144   67.2443 O   0  0  0  0  0  0  0  0  0  0  0  0
   20.1099   14.5560   66.6443 S   0  0  2  0  0  6  0  0  0  0  0  0
   14.4929   17.0233   65.2583 H   0  0  0  0  0  0  0  0  0  0  0  0
   13.9711   21.6342   64.0413 H   0  0  0  0  0  0  0  0  0  0  0  0
   14.0994   20.2282   63.0205 H   0  0  0  0  0  0  0  0  0  0  0  0
   14.3091   19.5010   67.0104 H   0  0  0  0  0  0  0  0  0  0  0  0
   13.5244   17.9775   67.3510 H   0  0  0  0  0  0  0  0  0  0  0  0
   15.2680   18.0874   67.3784 H   0  0  0  0  0  0  0  0  0  0  0  0
   22.4771   21.6461   65.1359 H   0  0  0  0  0  0  0  0  0  0  0  0
   23.5852   20.8307   63.1466 H   0  0  0  0  0  0  0  0  0  0  0  0
   20.0858   16.8354   62.3653 H   0  0  0  0  0  0  0  0  0  0  0  0
   18.6782   12.6387   66.7176 H   0  0  0  0  0  0  0  0  0  0  0  0
   20.3108   12.2339   67.1906 H   0  0  0  0  0  0  0  0  0  0  0  0
   19.2569   13.0636   68.3105 H   0  0  0  0  0  0  0  0  0  0  0  0
   16.4667   14.3308   67.2464 H   0  0  0  0  0  0  0  0  0  0  0  0
   17.4577   13.2667   67.6638 H   0  0  0  0  0  0  0  0  0  0  0  0
   17.3391   16.2703   68.7382 H   0  0  0  0  0  0  0  0  0  0  0  0
   18.4794   15.5372   69.4104 H   0  0  0  0  0  0  0  0  0  0  0  0
   16.1932   16.5466   66.2603 H   0  0  0  0  0  0  0  0  0  0  0  0
   13.1357   18.2300   63.7082 H   0  0  0  0  0  0  0  0  0  0  0  0
   12.2993   18.1688   65.2475 H   0  0  0  0  0  0  0  0  0  0  0  0
   16.2489   20.5977   64.0913 H   0  0  0  0  0  0  0  0  0  0  0  0
   15.4777   20.6605   65.6697 H   0  0  0  0  0  0  0  0  0  0  0  0
   20.4745   20.5136   65.9743 H   0  0  0  0  0  0  0  0  0  0  0  0
   19.4326   13.8609   64.6630 H   0  0  0  0  0  0  0  0  0  0  0  0
   23.4183   18.8481   61.1050 H   0  0  0  0  0  0  0  0  0  0  0  0
  1  3  1  0
  5  6  4  0
  6  7  4  0
 10 11  1  0
 11 12  1  0
 10 12  1  0
 10 13  1  1
 13 14  4  0
 14 15  4  0
  1 16  1  0
  2 17  1  0
  4 18  1  0
 18 19  4  0
  5 19  4  0
  8 20  4  0
 18 20  4  0
  7 20  4  0
 17 22  1  0
  1 22  1  0
 15 22  1  0
 15 23  4  0
  4 23  4  0
  8 24  4  0
 24 25  4  0
  7 25  4  0
 13 26  4  0
  4 26  4  0
  2 27  1  0
 16 27  1  0
 10 29  1  0
 29  9  1  6
 21 29  2  0
 28 29  2  0
  1 30  1  6
  2 31  1  0
  2 32  1  0
  3 33  1  0
  3 34  1  0
  3 35  1  0
  5 36  1  0
  6 37  1  0
  8 38  1  0
  9 39  1  0
  9 40  1  0
  9 41  1  0
 11 42  1  0
 11 43  1  0
 12 44  1  0
 12 45  1  0
 14 46  1  0
 16 47  1  0
 16 48  1  0
 17 49  1  0
 17 50  1  0
 19 51  1  0
 21 52  1  0
 25 53  1  0
M  CHG  1  25   1
M  END
