8D19_GSH_B_501
     RDKit          3D

 20 19  0  0  0  0  0  0  0  0999 V2000
   56.1935   12.1718   47.8104 N   0  0  0  0  0  0  0  0  0  0  0  0
   55.8740   12.4217   49.1821 C   0  0  2  0  0  0  0  0  0  0  0  0
   57.0055   12.1479   50.1022 C   0  0  0  0  0  0  0  0  0  0  0  0
   58.0575   11.5578   49.7584 O   0  0  0  0  0  0  0  0  0  0  0  0
   56.8556   12.5871   51.4202 O   0  0  0  0  0  0  0  0  0  0  0  0
   54.6661   11.6335   49.6462 C   0  0  0  0  0  0  0  0  0  0  0  0
   53.4715   11.9516   48.7690 C   0  0  0  0  0  0  0  0  0  0  0  0
   52.3066   11.0869   49.1746 C   0  0  0  0  0  0  0  0  0  0  0  0
   52.4529   10.3280   50.1728 O   0  0  0  0  0  0  0  0  0  0  0  0
   51.1119   11.1682   48.4195 N   0  0  0  0  0  0  0  0  0  0  0  0
   49.9790   10.3404   48.8318 C   0  0  2  0  0  0  0  0  0  0  0  0
   50.0285    9.1309   47.9692 C   0  0  0  0  0  0  0  0  0  0  0  0
   50.2855    9.3081   46.7531 O   0  0  0  0  0  0  0  0  0  0  0  0
   48.7306   11.1514   48.5553 C   0  0  0  0  0  0  0  0  0  0  0  0
   48.5395   12.5649   49.6474 S   0  0  0  0  0  0  0  0  0  0  0  0
   49.8061    7.8183   48.4354 N   0  0  0  0  0  0  0  0  0  0  0  0
   49.9416    6.7338   47.4810 C   0  0  0  0  0  0  0  0  0  0  0  0
   50.9582    5.7418   47.9434 C   0  0  0  0  0  0  0  0  0  0  0  0
   50.7840    4.4994   47.8502 O   0  0  0  0  0  0  0  0  0  0  0  0
   52.1287    6.2470   48.4922 O   0  0  0  0  0  0  0  0  0  0  0  0
  2  1  1  6
  2  3  1  0
  3  4  2  0
  3  5  1  0
  2  6  1  0
  6  7  1  6
  7  8  1  1
  8  9  2  0
  8 10  1  0
 11 10  1  6
 11 12  1  0
 12 13  2  0
 11 14  1  0
 14 15  1  1
 12 16  1  0
 17 16  1  6
 17 18  1  0
 18 19  2  0
 18 20  1  0
M  END
$$$$
