5SIS_JSM_A_803
     RDKit          3D

 32 35  0  0  0  0  0  0  0  0999 V2000
   28.2340  109.5070   56.5030 C   0  0  0  0  0  0  0  0  0  0  0  0
   29.4390  109.4450   58.7020 C   0  0  0  0  0  0  0  0  0  0  0  0
   30.6360  109.3690   59.3010 C   0  0  0  0  0  0  0  0  0  0  0  0
   27.9800  109.4350   53.9540 C   0  0  0  0  0  0  0  0  0  0  0  0
   36.8360  111.1530   58.7780 C   0  0  0  0  0  0  0  0  0  0  0  0
   34.0980  105.0480   61.9550 C   0  0  0  0  0  0  0  0  0  0  0  0
   36.4350  105.5730   61.2940 C   0  0  0  0  0  0  0  0  0  0  0  0
   28.6110  109.0470   52.7770 C   0  0  0  0  0  0  0  0  0  0  0  0
   26.6000  109.6020   53.9410 C   0  0  0  0  0  0  0  0  0  0  0  0
   33.7470  105.2440   63.4200 C   0  0  0  0  0  0  0  0  0  0  0  0
   35.5650  108.3900   60.7810 C   0  0  0  0  0  0  0  0  0  0  0  0
   35.3750  109.2950   59.7290 C   0  0  0  0  0  0  0  0  0  0  0  0
   30.4600  109.3800   56.5170 C   0  0  0  0  0  0  0  0  0  0  0  0
   30.1120  109.3990   55.2330 N   0  0  0  0  0  0  0  0  0  0  0  0
   34.2760  109.4580   58.7770 C   0  0  0  0  0  0  0  0  0  0  0  0
   29.3350  109.4540   57.3290 N   0  0  0  0  0  0  0  0  0  0  0  0
   34.6080  107.3580   61.2340 C   0  0  0  0  0  0  0  0  0  0  0  0
   28.7230  109.4920   55.2240 C   0  0  0  0  0  0  0  0  0  0  0  0
   31.7360  109.2940   57.1230 C   0  0  0  0  0  0  0  0  0  0  0  0
   36.4900  110.0660   59.6860 N   0  0  0  0  0  0  0  0  0  0  0  0
   37.3900  109.7150   60.6520 N   0  0  0  0  0  0  0  0  0  0  0  0
   36.8230  108.7190   61.3080 C   0  0  0  0  0  0  0  0  0  0  0  0
   31.8350  109.2980   58.4890 C   0  0  0  0  0  0  0  0  0  0  0  0
   33.0130  109.2150   59.2520 N   0  0  0  0  0  0  0  0  0  0  0  0
   35.0660  106.0370   61.4790 N   0  0  0  0  0  0  0  0  0  0  0  0
   34.4970  109.7750   57.6120 O   0  0  0  0  0  0  0  0  0  0  0  0
   33.4280  107.6470   61.4170 O   0  0  0  0  0  0  0  0  0  0  0  0
   34.9580  105.0310   64.2900 N   0  0  0  0  0  0  0  0  0  0  0  0
   35.6080  106.2330   64.8240 C   0  0  0  0  0  0  0  0  0  0  0  0
   25.8860  109.4710   52.7630 C   0  0  0  0  0  0  0  0  0  0  0  0
   27.8890  108.9130   51.6020 C   0  0  0  0  0  0  0  0  0  0  0  0
   26.5260  109.1220   51.5970 C   0  0  0  0  0  0  0  0  0  0  0  0
  2  3  2  0
  4  8  2  0
  4  9  1  0
  6 10  1  0
 11 12  2  0
 13 14  2  0
 12 15  1  0
 13 16  1  0
  1 16  1  0
  2 16  1  0
 11 17  1  0
 14 18  1  0
  1 18  2  0
  4 18  1  0
 13 19  1  0
 12 20  1  0
  5 20  1  0
 20 21  1  0
 11 22  1  0
 21 22  2  0
 19 23  2  0
  3 23  1  0
 15 24  1  0
 23 24  1  0
 17 25  1  0
  7 25  1  0
  6 25  1  0
 15 26  2  0
 17 27  2  0
 10 28  1  0
 28 29  1  0
  9 30  2  0
  8 31  1  0
 30 32  1  0
 31 32  2  0
M  END
$$$$
