1T46_STI_A_3
     RDKit          3D

 37 41  0  0  0  0  0  0  0  0999 V2000
   30.8340   22.5148   47.6604 C   0  0  0  0  0  0  0  0  0  0  0  0
   30.0965   23.3338   46.8111 C   0  0  0  0  0  0  0  0  0  0  0  0
   30.7021   24.3456   46.0960 C   0  0  0  0  0  0  0  0  0  0  0  0
   32.0620   24.4970   46.2686 C   0  0  0  0  0  0  0  0  0  0  0  0
   32.7639   23.7000   47.0917 N   0  0  0  0  0  0  0  0  0  0  0  0
   32.2111   22.7043   47.8050 C   0  0  0  0  0  0  0  0  0  0  0  0
   29.9063   25.1859   45.2117 C   0  0  0  0  0  0  0  0  0  0  0  0
   30.4240   26.2939   44.5832 C   0  0  0  0  0  0  0  0  0  0  0  0
   29.5728   27.0067   43.7678 C   0  0  0  0  0  0  0  0  0  0  0  0
   28.3008   26.6319   43.5998 N   0  0  0  0  0  0  0  0  0  0  0  0
   27.7785   25.5586   44.2013 C   0  0  0  0  0  0  0  0  0  0  0  0
   28.6337   24.8615   45.0065 N   0  0  0  0  0  0  0  0  0  0  0  0
   26.4517   25.1062   44.0683 N   0  0  0  0  0  0  0  0  0  0  0  0
   25.4038   25.7315   43.3896 C   0  0  0  0  0  0  0  0  0  0  0  0
   24.1968   25.9773   44.0708 C   0  0  0  0  0  0  0  0  0  0  0  0
   23.1311   26.5898   43.4473 C   0  0  0  0  0  0  0  0  0  0  0  0
   23.1830   26.9943   42.1330 C   0  0  0  0  0  0  0  0  0  0  0  0
   24.3551   26.7624   41.4512 C   0  0  0  0  0  0  0  0  0  0  0  0
   25.4247   26.1470   42.0781 C   0  0  0  0  0  0  0  0  0  0  0  0
   24.4630   27.1637   40.0900 N   0  0  0  0  0  0  0  0  0  0  0  0
   24.9541   26.1913   39.1755 C   0  0  0  0  0  0  0  0  0  0  0  0
   24.8179   26.2881   37.7371 C   0  0  0  0  0  0  0  0  0  0  0  0
   25.2017   25.2021   36.9808 C   0  0  0  0  0  0  0  0  0  0  0  0
   25.1101   25.1993   35.5994 C   0  0  0  0  0  0  0  0  0  0  0  0
   24.6115   26.3359   34.9503 C   0  0  0  0  0  0  0  0  0  0  0  0
   24.2271   27.4192   35.6812 C   0  0  0  0  0  0  0  0  0  0  0  0
   24.3304   27.3957   37.0776 C   0  0  0  0  0  0  0  0  0  0  0  0
   24.5495   26.2495   33.4687 C   0  0  0  0  0  0  0  0  0  0  0  0
   23.2227   26.3992   32.9625 N   0  0  0  0  0  0  0  0  0  0  0  0
   22.4659   27.4568   33.5507 C   0  0  0  0  0  0  0  0  0  0  0  0
   22.8574   28.8185   33.0198 C   0  0  0  0  0  0  0  0  0  0  0  0
   23.2018   28.7950   31.6337 N   0  0  0  0  0  0  0  0  0  0  0  0
   24.5412   29.1932   31.3204 C   0  0  0  0  0  0  0  0  0  0  0  0
   22.7363   27.6520   30.9085 C   0  0  0  0  0  0  0  0  0  0  0  0
   23.1283   26.3314   31.5378 C   0  0  0  0  0  0  0  0  0  0  0  0
   25.5421   25.1873   39.6527 O   0  0  0  0  0  0  0  0  0  0  0  0
   24.0652   25.5651   45.5060 C   0  0  0  0  0  0  0  0  0  0  0  0
  1  2  2  0
  2  3  1  0
  3  4  2  0
  4  5  1  0
  1  6  1  0
  5  6  2  0
  3  7  1  0
  7  8  2  0
  8  9  1  0
  9 10  2  0
 10 11  1  0
  7 12  1  0
 11 12  2  0
 11 13  1  0
 13 14  1  0
 14 15  2  0
 15 16  1  0
 16 17  2  0
 17 18  1  0
 14 19  1  0
 18 19  2  0
 18 20  1  0
 20 21  1  0
 21 22  1  0
 22 23  2  0
 23 24  1  0
 24 25  2  0
 25 26  1  0
 22 27  1  0
 26 27  2  0
 25 28  1  0
 28 29  1  0
 29 30  1  0
 30 31  1  0
 31 32  1  0
 32 33  1  0
 32 34  1  0
 29 35  1  0
 34 35  1  0
 21 36  2  0
 15 37  1  0
M  END
$$$$
