1T46_STI_A_3
     RDKit          3D

 37 41  0  0  0  0  0  0  0  0999 V2000
   25.0822   24.1540   42.7765 C   0  0  0  0  0  0  0  0  0  0  0  0
   26.1685   24.2959   43.6343 C   0  0  0  0  0  0  0  0  0  0  0  0
   26.9631   25.4225   43.5952 C   0  0  0  0  0  0  0  0  0  0  0  0
   26.6239   26.3870   42.6696 C   0  0  0  0  0  0  0  0  0  0  0  0
   25.5725   26.2389   41.8461 N   0  0  0  0  0  0  0  0  0  0  0  0
   24.7750   25.1574   41.8534 C   0  0  0  0  0  0  0  0  0  0  0  0
   28.0920   25.5462   44.5071 C   0  0  0  0  0  0  0  0  0  0  0  0
   28.3740   24.6008   45.4649 C   0  0  0  0  0  0  0  0  0  0  0  0
   29.4716   24.8280   46.2656 C   0  0  0  0  0  0  0  0  0  0  0  0
   30.2247   25.9217   46.1125 N   0  0  0  0  0  0  0  0  0  0  0  0
   29.9677   26.8522   45.1880 C   0  0  0  0  0  0  0  0  0  0  0  0
   28.8768   26.6139   44.4014 N   0  0  0  0  0  0  0  0  0  0  0  0
   30.7176   28.0239   44.9705 N   0  0  0  0  0  0  0  0  0  0  0  0
   31.9883   28.3246   45.4654 C   0  0  0  0  0  0  0  0  0  0  0  0
   32.6670   29.4534   44.9688 C   0  0  0  0  0  0  0  0  0  0  0  0
   33.9234   29.7938   45.4218 C   0  0  0  0  0  0  0  0  0  0  0  0
   34.5835   29.0572   46.3785 C   0  0  0  0  0  0  0  0  0  0  0  0
   33.9353   27.9502   46.8756 C   0  0  0  0  0  0  0  0  0  0  0  0
   32.6737   27.6089   46.4199 C   0  0  0  0  0  0  0  0  0  0  0  0
   34.5722   27.1548   47.8692 N   0  0  0  0  0  0  0  0  0  0  0  0
   34.0402   25.8529   48.0814 C   0  0  0  0  0  0  0  0  0  0  0  0
   34.6040   24.8855   48.9996 C   0  0  0  0  0  0  0  0  0  0  0  0
   35.7794   25.2152   49.6386 C   0  0  0  0  0  0  0  0  0  0  0  0
   36.3955   24.3567   50.5330 C   0  0  0  0  0  0  0  0  0  0  0  0
   35.8055   23.1140   50.7967 C   0  0  0  0  0  0  0  0  0  0  0  0
   34.6436   22.7704   50.1744 C   0  0  0  0  0  0  0  0  0  0  0  0
   34.0412   23.6577   49.2739 C   0  0  0  0  0  0  0  0  0  0  0  0
   36.5329   22.2545   51.7655 C   0  0  0  0  0  0  0  0  0  0  0  0
   37.6398   22.9221   52.3724 N   0  0  0  0  0  0  0  0  0  0  0  0
   37.3309   24.1751   52.9822 C   0  0  0  0  0  0  0  0  0  0  0  0
   36.6482   24.0179   54.3233 C   0  0  0  0  0  0  0  0  0  0  0  0
   37.1347   22.8982   55.0650 N   0  0  0  0  0  0  0  0  0  0  0  0
   36.1657   21.8897   55.3729 C   0  0  0  0  0  0  0  0  0  0  0  0
   38.4058   22.3926   54.6435 C   0  0  0  0  0  0  0  0  0  0  0  0
   38.4730   22.0729   53.1647 C   0  0  0  0  0  0  0  0  0  0  0  0
   33.0164   25.5282   47.4273 O   0  0  0  0  0  0  0  0  0  0  0  0
   32.0111   30.3056   43.9245 C   0  0  0  0  0  0  0  0  0  0  0  0
  1  2  2  0
  2  3  1  0
  3  4  2  0
  4  5  1  0
  1  6  1  0
  5  6  2  0
  3  7  1  0
  7  8  2  0
  8  9  1  0
  9 10  2  0
 10 11  1  0
  7 12  1  0
 11 12  2  0
 11 13  1  0
 13 14  1  0
 14 15  2  0
 15 16  1  0
 16 17  2  0
 17 18  1  0
 14 19  1  0
 18 19  2  0
 18 20  1  0
 20 21  1  0
 21 22  1  0
 22 23  2  0
 23 24  1  0
 24 25  2  0
 25 26  1  0
 22 27  1  0
 26 27  2  0
 25 28  1  0
 28 29  1  0
 29 30  1  0
 30 31  1  0
 31 32  1  0
 32 33  1  0
 32 34  1  0
 29 35  1  0
 34 35  1  0
 21 36  2  0
 15 37  1  0
M  END
$$$$
