1T46_STI_A_3
     RDKit          3D

 37 41  0  0  0  0  0  0  0  0999 V2000
   32.5192   24.5135   47.4340 C   0  0  0  0  0  0  0  0  0  0  0  0
   31.6964   25.3055   46.6391 C   0  0  0  0  0  0  0  0  0  0  0  0
   30.4568   24.8586   46.2323 C   0  0  0  0  0  0  0  0  0  0  0  0
   30.0847   23.5989   46.6525 C   0  0  0  0  0  0  0  0  0  0  0  0
   30.8878   22.8430   47.4200 N   0  0  0  0  0  0  0  0  0  0  0  0
   32.1012   23.2422   47.8369 C   0  0  0  0  0  0  0  0  0  0  0  0
   29.6148   25.7099   45.4030 C   0  0  0  0  0  0  0  0  0  0  0  0
   29.9967   26.9727   45.0155 C   0  0  0  0  0  0  0  0  0  0  0  0
   29.1152   27.6800   44.2280 C   0  0  0  0  0  0  0  0  0  0  0  0
   27.9419   27.1554   43.8607 N   0  0  0  0  0  0  0  0  0  0  0  0
   27.5521   25.9304   44.2265 C   0  0  0  0  0  0  0  0  0  0  0  0
   28.4358   25.2407   45.0070 N   0  0  0  0  0  0  0  0  0  0  0  0
   26.3347   25.3161   43.8754 N   0  0  0  0  0  0  0  0  0  0  0  0
   25.2392   25.9020   43.2379 C   0  0  0  0  0  0  0  0  0  0  0  0
   24.0537   26.1111   43.9675 C   0  0  0  0  0  0  0  0  0  0  0  0
   22.9431   26.6838   43.3858 C   0  0  0  0  0  0  0  0  0  0  0  0
   22.9270   27.0823   42.0689 C   0  0  0  0  0  0  0  0  0  0  0  0
   24.0772   26.8859   41.3401 C   0  0  0  0  0  0  0  0  0  0  0  0
   25.1919   26.3104   41.9249 C   0  0  0  0  0  0  0  0  0  0  0  0
   24.1153   27.2828   39.9739 N   0  0  0  0  0  0  0  0  0  0  0  0
   24.8428   26.4428   39.0859 C   0  0  0  0  0  0  0  0  0  0  0  0
   24.6138   26.3803   37.6575 C   0  0  0  0  0  0  0  0  0  0  0  0
   25.5505   25.7295   36.8844 C   0  0  0  0  0  0  0  0  0  0  0  0
   25.4203   25.6179   35.5106 C   0  0  0  0  0  0  0  0  0  0  0  0
   24.3012   26.1843   34.8870 C   0  0  0  0  0  0  0  0  0  0  0  0
   23.3647   26.8318   35.6348 C   0  0  0  0  0  0  0  0  0  0  0  0
   23.5209   26.9303   37.0229 C   0  0  0  0  0  0  0  0  0  0  0  0
   24.2414   26.0210   33.4118 C   0  0  0  0  0  0  0  0  0  0  0  0
   23.0492   26.5649   32.8446 N   0  0  0  0  0  0  0  0  0  0  0  0
   22.6538   27.8329   33.3673 C   0  0  0  0  0  0  0  0  0  0  0  0
   23.4777   28.9744   32.8126 C   0  0  0  0  0  0  0  0  0  0  0  0
   23.8393   28.7831   31.4440 N   0  0  0  0  0  0  0  0  0  0  0  0
   25.2448   28.7189   31.1768 C   0  0  0  0  0  0  0  0  0  0  0  0
   23.0546   27.8189   30.7345 C   0  0  0  0  0  0  0  0  0  0  0  0
   22.9825   26.4703   31.4199 C   0  0  0  0  0  0  0  0  0  0  0  0
   25.7390   25.7114   39.5789 O   0  0  0  0  0  0  0  0  0  0  0  0
   23.9952   25.7029   45.4087 C   0  0  0  0  0  0  0  0  0  0  0  0
  1  2  2  0
  2  3  1  0
  3  4  2  0
  4  5  1  0
  1  6  1  0
  5  6  2  0
  3  7  1  0
  7  8  2  0
  8  9  1  0
  9 10  2  0
 10 11  1  0
  7 12  1  0
 11 12  2  0
 11 13  1  0
 13 14  1  0
 14 15  2  0
 15 16  1  0
 16 17  2  0
 17 18  1  0
 14 19  1  0
 18 19  2  0
 18 20  1  0
 20 21  1  0
 21 22  1  0
 22 23  2  0
 23 24  1  0
 24 25  2  0
 25 26  1  0
 22 27  1  0
 26 27  2  0
 25 28  1  0
 28 29  1  0
 29 30  1  0
 30 31  1  0
 31 32  1  0
 32 33  1  0
 32 34  1  0
 29 35  1  0
 34 35  1  0
 21 36  2  0
 15 37  1  0
M  END
$$$$
