
     RDKit          3D

 44 48  0  0  0  0  0  0  0  0999 V2000
   31.0731   -4.1850  -38.2183 P   0  0  2  0  0  5  0  0  0  0  0  0
   32.4473   -4.7675  -38.1827 O   0  0  0  0  0  0  0  0  0  0  0  0
   30.8924   -3.2268  -39.4923 O   0  0  0  0  0  0  0  0  0  0  0  0
   30.6951   -3.2425  -36.9868 O   0  0  0  0  0  0  0  0  0  0  0  0
   31.2321   -3.5623  -35.7158 C   0  0  0  0  0  0  0  0  0  0  0  0
   32.2236   -2.4675  -35.3304 C   0  0  1  0  0  0  0  0  0  0  0  0
   32.7349   -2.7753  -34.0122 O   0  0  0  0  0  0  0  0  0  0  0  0
   33.4215   -2.3903  -36.2777 C   0  0  1  0  0  0  0  0  0  0  0  0
   33.8330   -1.0258  -36.4374 O   0  0  0  0  0  0  0  0  0  0  0  0
   34.5047   -3.1353  -35.5138 C   0  0  1  0  0  0  0  0  0  0  0  0
   35.8069   -2.7311  -35.9317 O   0  0  0  0  0  0  0  0  0  0  0  0
   34.1723   -2.7641  -34.0676 C   0  0  2  0  0  0  0  0  0  0  0  0
   34.6961   -3.6346  -33.0331 N   0  0  0  0  0  0  0  0  0  0  0  0
   35.3614   -4.8227  -33.1986 C   0  0  0  0  0  0  0  0  0  0  0  0
   35.7536   -5.3375  -32.0510 N   0  0  0  0  0  0  0  0  0  0  0  0
   35.3577   -4.4192  -31.1009 C   0  0  0  0  0  0  0  0  0  0  0  0
   35.5094   -4.3725  -29.7046 C   0  0  0  0  0  0  0  0  0  0  0  0
   36.1529   -5.3666  -28.9732 N   0  0  0  0  0  0  0  0  0  0  0  0
   35.0499   -3.2893  -29.0371 N   0  0  0  0  0  0  0  0  0  0  0  0
   34.4441   -2.3121  -29.7447 C   0  0  0  0  0  0  0  0  0  0  0  0
   34.2637   -2.2413  -31.0755 N   0  0  0  0  0  0  0  0  0  0  0  0
   34.7288   -3.3377  -31.6937 C   0  0  0  0  0  0  0  0  0  0  0  0
   29.8799   -5.2154  -38.3526 O   0  0  0  0  0  0  0  0  0  0  0  0
   28.3621   -4.8306  -38.5836 P   0  0  2  0  0  5  0  0  0  0  0  0
   28.1848   -5.0945  -40.1577 O   0  0  0  0  0  0  0  0  0  0  0  0
   27.9050   -3.4527  -38.2350 O   0  0  0  0  0  0  0  0  0  0  0  0
   27.4797   -6.0259  -37.9843 O   0  0  0  0  0  0  0  0  0  0  0  0
   27.2212   -6.0533  -36.5928 C   0  0  0  0  0  0  0  0  0  0  0  0
   27.4886   -7.4613  -36.0429 C   0  0  1  0  0  0  0  0  0  0  0  0
   26.2320   -8.1219  -35.7924 O   0  0  0  0  0  0  0  0  0  0  0  0
   28.2433   -8.3588  -37.0125 C   0  0  1  0  0  0  0  0  0  0  0  0
   28.8785   -9.4364  -36.3036 O   0  0  0  0  0  0  0  0  0  0  0  0
   27.1270   -8.9255  -37.8679 C   0  0  1  0  0  0  0  0  0  0  0  0
   27.5713  -10.1490  -38.4720 O   0  0  0  0  0  0  0  0  0  0  0  0
   25.9828   -9.0822  -36.8457 C   0  0  2  0  0  0  0  0  0  0  0  0
   24.6189   -8.8873  -37.4149 N   0  0  0  0  0  0  0  0  0  0  0  0
   23.5582   -9.6737  -36.9333 C   0  0  0  0  0  0  0  0  0  0  0  0
   22.3110   -9.6643  -37.4409 C   0  0  0  0  0  0  0  0  0  0  0  0
   21.2034  -10.4995  -36.9106 C   0  0  0  0  0  0  0  0  0  0  0  0
   20.2082  -10.7660  -37.5794 O   0  0  0  0  0  0  0  0  0  0  0  0
   21.3600  -11.0014  -35.6553 N   0  0  0  0  0  0  0  0  0  0  0  0
   21.9571   -8.7525  -38.5867 C   0  0  0  0  0  0  0  0  0  0  0  0
   23.1470   -7.9846  -39.1051 C   0  0  0  0  0  0  0  0  0  0  0  0
   24.3551   -8.0895  -38.5289 C   0  0  0  0  0  0  0  0  0  0  0  0
  1  2  2  0
  1  3  1  6
  1  4  1  0
  4  5  1  0
  6  5  1  6
  6  7  1  0
  6  8  1  0
  8  9  1  1
  8 10  1  0
 10 11  1  6
  7 12  1  0
 10 12  1  0
 12 13  1  1
 13 14  4  0
 14 15  4  0
 15 16  4  0
 16 17  4  0
 17 18  1  0
 17 19  4  0
 19 20  4  0
 20 21  4  0
 13 22  4  0
 16 22  4  0
 21 22  4  0
  1 23  1  0
 24 23  1  0
 24 25  1  6
 24 26  2  0
 24 27  1  0
 27 28  1  0
 29 28  1  6
 29 30  1  0
 29 31  1  0
 31 32  1  1
 31 33  1  0
 33 34  1  1
 30 35  1  0
 33 35  1  0
 35 36  1  6
 36 37  1  0
 37 38  2  0
 38 39  1  0
 39 40  2  0
 39 41  1  0
 38 42  1  0
 42 43  1  0
 36 44  1  0
 43 44  2  0
M  END
