7TE8_P0T_D_201
     RDKit          3D

 23 24  0  0  0  0  0  0  0  0999 V2000
  -42.8983  -53.9505   41.3646 C   0  0  0  0  0  0  0  0  0  0  0  0
  -44.9579  -55.2041   38.5590 C   0  0  0  0  0  0  0  0  0  0  0  0
  -46.2648  -53.2520   39.2518 C   0  0  0  0  0  0  0  0  0  0  0  0
  -48.3364  -54.7920   43.7171 C   0  0  0  0  0  0  0  0  0  0  0  0
  -42.6199  -53.2588   40.2433 C   0  0  0  0  0  0  0  0  0  0  0  0
  -44.3398  -53.9414   41.8977 C   0  0  1  0  0  0  0  0  0  0  0  0
  -45.2840  -54.8652   41.0800 C   0  0  1  0  0  0  0  0  0  0  0  0
  -44.3530  -54.4108   43.3787 C   0  0  0  0  0  0  0  0  0  0  0  0
  -45.7768  -54.2872   44.0095 C   0  0  0  0  0  0  0  0  0  0  0  0
  -46.6683  -55.0266   41.7278 C   0  0  0  0  0  0  0  0  0  0  0  0
  -45.5205  -54.4273   39.6291 C   0  0  0  0  0  0  0  0  0  0  0  0
  -46.9081  -54.8170   43.0966 C   0  0  0  0  0  0  0  0  0  0  0  0
  -45.9081  -53.6780   36.8486 C   0  0  0  0  0  0  0  0  0  0  0  0
  -45.1570  -54.8318   37.2063 C   0  0  0  0  0  0  0  0  0  0  0  0
  -46.4647  -52.8885   37.8911 C   0  0  0  0  0  0  0  0  0  0  0  0
  -46.1211  -53.3007   35.3405 C   0  0  0  0  0  0  0  0  0  0  0  0
  -41.7956  -54.7316   42.0668 C   0  0  0  0  0  0  0  0  0  0  0  0
  -44.9160  -53.6301   34.4235 C   0  0  0  0  0  0  0  0  0  0  0  0
  -44.2791  -52.3982   33.7431 C   0  0  0  0  0  0  0  0  0  0  0  0
  -43.1372  -52.6754   32.7280 C   0  0  0  0  0  0  0  0  0  0  0  0
  -42.1230  -51.5095   32.6785 C   0  0  0  0  0  0  0  0  0  0  0  0
  -44.2207  -56.3359   38.9187 O   0  0  0  0  0  0  0  0  0  0  0  0
  -46.8124  -52.4936   40.2708 O   0  0  0  0  0  0  0  0  0  0  0  0
  1  5  1  0
  6  1  1  6
  6  7  1  0
  6  8  1  0
  8  9  1  0
  7 10  1  0
  2 11  2  0
  7 11  1  6
  3 11  1  0
  4 12  1  0
  9 12  1  0
 10 12  2  0
  2 14  1  0
 13 14  2  0
 13 15  1  0
  3 15  2  0
 13 16  1  0
  1 17  2  0
 16 18  1  0
 18 19  1  0
 19 20  1  0
 20 21  1  0
  2 22  1  0
  3 23  1  0
M  END
