
     RDKit          3D

 19 19  0  0  0  0  0  0  0  0999 V2000
   35.4106   37.7749   29.5897 C   0  0  2  0  0  0  0  0  0  0  0  0
   34.5216   37.3546   30.7940 C   0  0  1  0  0  0  0  0  0  0  0  0
   33.5687   38.5254   31.1548 C   0  0  2  0  0  0  0  0  0  0  0  0
   34.3308   39.8627   31.2355 C   0  0  2  0  0  0  0  0  0  0  0  0
   35.1275   40.0903   29.9446 C   0  0  1  0  0  0  0  0  0  0  0  0
   35.9142   41.4085   29.9320 C   0  0  0  0  0  0  0  0  0  0  0  0
   33.9224   34.9102   31.1451 C   0  0  0  0  0  0  0  0  0  0  0  0
   33.0227   33.8163   30.6345 C   0  0  0  0  0  0  0  0  0  0  0  0
   33.8627   36.0758   30.4269 N   0  0  0  0  0  0  0  0  0  0  0  0
   36.4046   36.7786   29.3931 O   0  0  0  0  0  0  0  0  0  0  0  0
   32.9273   38.3498   32.4332 O   0  0  0  0  0  0  0  0  0  0  0  0
   35.2324   39.7917   32.3428 O   0  0  0  0  0  0  0  0  0  0  0  0
   36.0674   39.0155   29.7675 O   0  0  0  0  0  0  0  0  0  0  0  0
   37.1025   41.3364   30.7076 O   0  0  0  0  0  0  0  0  0  0  0  0
   34.6333   34.7597   32.1324 O   0  0  0  0  0  0  0  0  0  0  0  0
   35.1070   40.8586   33.5630 S   0  0  0  0  0  6  0  0  0  0  0  0
   36.3358   40.8471   34.3265 O   0  0  0  0  0  0  0  0  0  0  0  0
   35.0481   42.2670   32.7847 O   0  0  0  0  0  0  0  0  0  0  0  0
   33.8217   40.6627   34.1938 O   0  0  0  0  0  0  0  0  0  0  0  0
  1  2  1  0
  2  3  1  0
  3  4  1  0
  4  5  1  0
  5  6  1  1
  7  8  1  0
  2  9  1  6
  7  9  1  0
  1 10  1  1
  3 11  1  1
  4 12  1  1
  1 13  1  0
  5 13  1  0
  6 14  1  0
  7 15  2  0
 12 16  1  0
 16 17  2  0
 16 18  1  0
 16 19  2  0
M  END
