6Z2C_Q5E_C_201
     RDKit          3D

 39 41  0  0  0  0  0  0  0  0999 V2000
    1.6212   -0.6050    0.4067 O   0  0  0  0  0  0  0  0  0  0  0  0
    0.7984    0.3147    0.1537 C   0  0  0  0  0  0  0  0  0  0  0  0
    1.0847    1.7740    0.3544 C   0  0  1  0  0  0  0  0  0  0  0  0
    2.0983    2.3999   -0.6495 C   0  0  1  0  0  0  0  0  0  0  0  0
    1.5928    3.8455   -0.7454 C   0  0  0  0  0  0  0  0  0  0  0  0
    2.4844    4.8534   -1.9499 Cl  0  0  0  0  0  0  0  0  0  0  0  0
    1.5998    4.7522    0.8136 Cl  0  0  0  0  0  0  0  0  0  0  0  0
    3.8138    2.2187   -0.1834 Cl  0  0  0  0  0  0  0  0  0  0  0  0
    1.7509    1.9168   -2.0434 C   0  0  0  0  0  0  0  0  0  0  0  0
    2.6943    0.8319   -3.0564 Cl  0  0  0  0  0  0  0  0  0  0  0  0
    0.6087    2.5166   -2.3871 C   0  0  0  0  0  0  0  0  0  0  0  0
   -0.2163    2.3607   -3.9324 Cl  0  0  0  0  0  0  0  0  0  0  0  0
    0.2049    3.3941   -1.2192 C   0  0  2  0  0  0  0  0  0  0  0  0
   -0.9354    4.7124   -1.6124 Cl  0  0  0  0  0  0  0  0  0  0  0  0
   -0.2482    2.4739   -0.0466 C   0  0  1  0  0  0  0  0  0  0  0  0
   -1.1489    1.3371   -0.4318 C   0  0  0  0  0  0  0  0  0  0  0  0
   -2.3490    1.4797   -0.7872 O   0  0  0  0  0  0  0  0  0  0  0  0
   -0.5094    0.0721   -0.3439 N   0  0  0  0  0  0  0  0  0  0  0  0
   -1.1640   -1.2307   -0.4349 C   0  0  0  0  0  0  0  0  0  0  0  0
   -1.7401   -1.6279    0.9293 C   0  0  0  0  0  0  0  0  0  0  0  0
   -2.5883   -2.9109    0.8738 C   0  0  0  0  0  0  0  0  0  0  0  0
   -1.8285   -4.1721    0.4240 C   0  0  0  0  0  0  0  0  0  0  0  0
   -0.6691   -4.5377    1.3595 C   0  0  0  0  0  0  0  0  0  0  0  0
   -0.0824   -5.8578    0.9713 C   0  0  0  0  0  0  0  0  0  0  0  0
    0.9036   -5.9160   -0.0087 O   0  0  0  0  0  0  0  0  0  0  0  0
   -0.5076   -6.9190    1.5014 O   0  0  0  0  0  0  0  0  0  0  0  0
    1.3540    1.9795    1.4137 H   0  0  0  0  0  0  0  0  0  0  0  0
   -0.6815    3.0485    0.8012 H   0  0  0  0  0  0  0  0  0  0  0  0
   -1.9759   -1.1851   -1.1927 H   0  0  0  0  0  0  0  0  0  0  0  0
   -0.4209   -1.9835   -0.7723 H   0  0  0  0  0  0  0  0  0  0  0  0
   -0.9199   -1.7373    1.6696 H   0  0  0  0  0  0  0  0  0  0  0  0
   -2.3938   -0.8043    1.2908 H   0  0  0  0  0  0  0  0  0  0  0  0
   -3.4425   -2.7467    0.1813 H   0  0  0  0  0  0  0  0  0  0  0  0
   -3.0198   -3.0926    1.8823 H   0  0  0  0  0  0  0  0  0  0  0  0
   -2.5557   -5.0140    0.4080 H   0  0  0  0  0  0  0  0  0  0  0  0
   -1.4550   -4.0471   -0.6146 H   0  0  0  0  0  0  0  0  0  0  0  0
   -1.0288   -4.5871    2.4105 H   0  0  0  0  0  0  0  0  0  0  0  0
    0.1294   -3.7688    1.2976 H   0  0  0  0  0  0  0  0  0  0  0  0
    1.2998   -6.8033   -0.2947 H   0  0  0  0  0  0  0  0  0  0  0  0
  1  2  2  0
  3  2  1  0
  3  4  1  0
  4  5  1  0
  5  6  1  0
  5  7  1  0
  4  8  1  1
  4  9  1  0
  9 10  1  0
  9 11  2  0
 11 12  1  0
  5 13  1  0
 11 13  1  0
 13 14  1  6
 13 15  1  0
  3 15  1  0
 15 16  1  0
 16 17  2  0
 16 18  1  0
  2 18  1  0
 18 19  1  0
 19 20  1  0
 20 21  1  0
 21 22  1  0
 22 23  1  0
 23 24  1  0
 24 25  1  0
 24 26  2  0
  3 27  1  1
 15 28  1  1
 19 29  1  0
 19 30  1  0
 20 31  1  0
 20 32  1  0
 21 33  1  0
 21 34  1  0
 22 35  1  0
 22 36  1  0
 23 37  1  0
 23 38  1  0
 25 39  1  0
M  END
