6Z2C_Q5E_B_201
     RDKit          3D

 26 28  0  0  0  0  0  0  0  0999 V2000
  -17.6490    4.4260   -9.9240 O   0  0  0  0  0  0  0  0  0  0  0  0
  -18.6010    4.2230  -10.6930 C   0  0  0  0  0  0  0  0  0  0  0  0
  -19.9190    4.1610  -10.2100 C   0  0  1  0  0  0  0  0  0  0  0  0
  -20.5430    5.5260   -9.7560 C   0  0  1  0  0  0  0  0  0  0  0  0
  -22.0310    5.2800  -10.0130 C   0  0  0  0  0  0  0  0  0  0  0  0
  -22.8420    3.8870   -9.0030 Cl  0  0  0  0  0  0  0  0  0  0  0  0
  -23.0930    6.7460   -9.6180 Cl  0  0  0  0  0  0  0  0  0  0  0  0
  -20.1420    5.9920   -8.0510 Cl  0  0  0  0  0  0  0  0  0  0  0  0
  -20.2930    6.5130  -10.7230 C   0  0  0  0  0  0  0  0  0  0  0  0
  -19.1320    7.8050  -10.4650 Cl  0  0  0  0  0  0  0  0  0  0  0  0
  -21.0500    6.2600  -11.7890 C   0  0  0  0  0  0  0  0  0  0  0  0
  -21.0890    7.1710  -13.2490 Cl  0  0  0  0  0  0  0  0  0  0  0  0
  -21.7710    5.0600  -11.4890 C   0  0  2  0  0  0  0  0  0  0  0  0
  -23.2810    4.7580  -12.3900 Cl  0  0  0  0  0  0  0  0  0  0  0  0
  -20.7540    3.8560  -11.4120 C   0  0  1  0  0  0  0  0  0  0  0  0
  -19.8340    3.8000  -12.4450 C   0  0  0  0  0  0  0  0  0  0  0  0
  -20.1570    3.5490  -13.6020 O   0  0  0  0  0  0  0  0  0  0  0  0
  -18.5570    3.9810  -12.0180 N   0  0  0  0  0  0  0  0  0  0  0  0
  -17.4490    3.9350  -12.9920 C   0  0  0  0  0  0  0  0  0  0  0  0
  -16.6130    5.2170  -12.9920 C   0  0  0  0  0  0  0  0  0  0  0  0
  -16.8100    5.9740  -14.2830 C   0  0  0  0  0  0  0  0  0  0  0  0
  -16.7790    7.4670  -14.0100 C   0  0  0  0  0  0  0  0  0  0  0  0
  -17.2830    8.2180  -15.2410 C   0  0  0  0  0  0  0  0  0  0  0  0
  -18.3420    9.2170  -14.8090 C   0  0  0  0  0  0  0  0  0  0  0  0
  -18.1710    9.7520  -13.7030 O   0  0  0  0  0  0  0  0  0  0  0  0
  -19.2930    9.4290  -15.5970 O   0  0  0  0  0  0  0  0  0  0  0  0
  1  2  2  0
  3  2  1  6
  3  4  1  0
  4  5  1  0
  5  6  1  0
  5  7  1  0
  4  8  1  1
  4  9  1  0
  9 10  1  0
  9 11  2  0
 11 12  1  0
  5 13  1  0
 11 13  1  0
 13 14  1  6
 13 15  1  0
  3 15  1  0
 15 16  1  6
 16 17  2  0
 16 18  1  0
  2 18  1  0
 18 19  1  0
 19 20  1  0
 20 21  1  0
 21 22  1  0
 22 23  1  0
 23 24  1  0
 24 25  1  0
 24 26  2  0
M  END
$$$$
6Z2C_Q5E_A_201
     RDKit          3D

 26 28  0  0  0  0  0  0  0  0999 V2000
   -6.8690    4.3020   31.4700 O   0  0  0  0  0  0  0  0  0  0  0  0
   -5.7600    4.1310   30.9740 C   0  0  0  0  0  0  0  0  0  0  0  0
   -5.5510    4.0470   29.5870 C   0  0  1  0  0  0  0  0  0  0  0  0
   -5.6720    5.4060   28.8230 C   0  0  1  0  0  0  0  0  0  0  0  0
   -4.7240    5.1970   27.6750 C   0  0  0  0  0  0  0  0  0  0  0  0
   -5.1320    3.7850   26.4750 Cl  0  0  0  0  0  0  0  0  0  0  0  0
   -4.5060    6.6200   26.4950 Cl  0  0  0  0  0  0  0  0  0  0  0  0
   -7.3590    5.8070   28.2550 Cl  0  0  0  0  0  0  0  0  0  0  0  0
   -4.9620    6.4160   29.5300 C   0  0  0  0  0  0  0  0  0  0  0  0
   -5.7240    7.6900   30.4350 Cl  0  0  0  0  0  0  0  0  0  0  0  0
   -3.6580    6.1990   29.3760 C   0  0  0  0  0  0  0  0  0  0  0  0
   -2.3790    7.1590   30.0830 Cl  0  0  0  0  0  0  0  0  0  0  0  0
   -3.5340    5.0010   28.5970 C   0  0  2  0  0  0  0  0  0  0  0  0
   -1.9810    4.7170   27.7290 Cl  0  0  0  0  0  0  0  0  0  0  0  0
   -4.0680    3.8090   29.4810 C   0  0  1  0  0  0  0  0  0  0  0  0
   -3.6070    3.8160   30.7930 C   0  0  0  0  0  0  0  0  0  0  0  0
   -2.4000    3.6430   31.0650 O   0  0  0  0  0  0  0  0  0  0  0  0
   -4.6050    4.0270   31.6800 N   0  0  0  0  0  0  0  0  0  0  0  0
   -4.4840    4.0390   33.1580 C   0  0  0  0  0  0  0  0  0  0  0  0
   -4.5670    5.4330   33.8280 C   0  0  0  0  0  0  0  0  0  0  0  0
   -3.3930    6.3400   33.4120 C   0  0  0  0  0  0  0  0  0  0  0  0
   -2.9300    7.2140   34.5970 C   0  0  0  0  0  0  0  0  0  0  0  0
   -3.7950    8.4890   34.6710 C   0  0  0  0  0  0  0  0  0  0  0  0
   -3.6300    9.2170   36.0210 C   0  0  0  0  0  0  0  0  0  0  0  0
   -2.7380    8.8110   36.8020 O   0  0  0  0  0  0  0  0  0  0  0  0
   -4.4270   10.1610   36.2580 O   0  0  0  0  0  0  0  0  0  0  0  0
  1  2  2  0
  3  2  1  1
  3  4  1  0
  4  5  1  0
  5  6  1  0
  5  7  1  0
  4  8  1  6
  4  9  1  0
  9 10  1  0
  9 11  2  0
 11 12  1  0
  5 13  1  0
 11 13  1  0
 13 14  1  6
 13 15  1  0
  3 15  1  0
 15 16  1  1
 16 17  2  0
 16 18  1  0
  2 18  1  0
 18 19  1  0
 19 20  1  0
 20 21  1  0
 21 22  1  0
 22 23  1  0
 23 24  1  0
 24 25  1  0
 24 26  2  0
M  END
$$$$
6Z2C_Q5E_C_201
     RDKit          3D

 26 28  0  0  0  0  0  0  0  0999 V2000
  -48.0980    4.3710   20.2920 O   0  0  0  0  0  0  0  0  0  0  0  0
  -48.2160    4.1830   21.5050 C   0  0  0  0  0  0  0  0  0  0  0  0
  -47.0900    4.1070   22.3740 C   0  0  1  0  0  0  0  0  0  0  0  0
  -46.3550    5.4660   22.6790 C   0  0  1  0  0  0  0  0  0  0  0  0
  -45.8230    5.2000   24.0580 C   0  0  0  0  0  0  0  0  0  0  0  0
  -44.6150    3.7700   24.1540 Cl  0  0  0  0  0  0  0  0  0  0  0  0
  -44.8500    6.6060   24.7940 Cl  0  0  0  0  0  0  0  0  0  0  0  0
  -45.0610    5.9080   21.4860 Cl  0  0  0  0  0  0  0  0  0  0  0  0
  -47.2850    6.4870   22.9690 C   0  0  0  0  0  0  0  0  0  0  0  0
  -47.6090    7.8310   21.8900 Cl  0  0  0  0  0  0  0  0  0  0  0  0
  -47.8280    6.2160   24.1490 C   0  0  0  0  0  0  0  0  0  0  0  0
  -49.0500    7.1340   24.9320 Cl  0  0  0  0  0  0  0  0  0  0  0  0
  -47.2280    5.0040   24.6150 C   0  0  2  0  0  0  0  0  0  0  0  0
  -47.2620    4.7200   26.3810 Cl  0  0  0  0  0  0  0  0  0  0  0  0
  -47.7000    3.8140   23.7070 C   0  0  1  0  0  0  0  0  0  0  0  0
  -49.0830    3.8160   23.4620 C   0  0  0  0  0  0  0  0  0  0  0  0
  -49.9050    3.5940   24.3430 O   0  0  0  0  0  0  0  0  0  0  0  0
  -49.3730    4.0240   22.1740 N   0  0  0  0  0  0  0  0  0  0  0  0
  -50.7570    4.0630   21.6170 C   0  0  0  0  0  0  0  0  0  0  0  0
  -51.6240    5.2060   22.2190 C   0  0  0  0  0  0  0  0  0  0  0  0
  -51.3160    6.5590   21.5820 C   0  0  0  0  0  0  0  0  0  0  0  0
  -52.5870    7.4260   21.4130 C   0  0  0  0  0  0  0  0  0  0  0  0
  -52.7800    8.4080   22.5900 C   0  0  0  0  0  0  0  0  0  0  0  0
  -53.2840    9.7540   22.0390 C   0  0  0  0  0  0  0  0  0  0  0  0
  -54.5240    9.9390   22.0500 O   0  0  0  0  0  0  0  0  0  0  0  0
  -52.4160   10.5460   21.5730 O   0  0  0  0  0  0  0  0  0  0  0  0
  1  2  2  0
  3  2  1  6
  3  4  1  0
  4  5  1  0
  5  6  1  0
  5  7  1  0
  4  8  1  6
  4  9  1  0
  9 10  1  0
  9 11  2  0
 11 12  1  0
  5 13  1  0
 11 13  1  0
 13 14  1  1
 13 15  1  0
  3 15  1  0
 15 16  1  6
 16 17  2  0
 16 18  1  0
  2 18  1  0
 18 19  1  0
 19 20  1  0
 20 21  1  0
 21 22  1  0
 22 23  1  0
 23 24  1  0
 24 25  1  0
 24 26  2  0
M  END
$$$$
