1K3U_IAD_A_801
     RDKit          3D

 21 22  0  0  0  0  0  0  0  0999 V2000
   47.2299   24.5344   13.4191 O   0  0  0  0  0  0  0  0  0  0  0  0
   47.8640   25.7491   13.3640 C   0  0  0  0  0  0  0  0  0  0  0  0
   47.4640   26.6415   14.1748 O   0  0  0  0  0  0  0  0  0  0  0  0
   48.9583   26.1125   12.4584 C   0  0  0  0  0  0  0  0  0  0  0  0
   49.3699   27.5457   12.6931 C   0  0  1  0  0  0  0  0  0  0  0  0
   48.2409   28.4416   12.2380 C   0  0  0  0  0  0  0  0  0  0  0  0
   48.2065   28.8969   11.0613 O   0  0  0  0  0  0  0  0  0  0  0  0
   47.2355   28.7605   13.1340 O   0  0  0  0  0  0  0  0  0  0  0  0
   49.6338   27.7732   14.0988 N   0  0  0  0  0  0  0  0  0  0  0  0
   50.6545   28.7012   14.4453 C   0  0  0  0  0  0  0  0  0  0  0  0
   51.1672   29.5088   13.6138 O   0  0  0  0  0  0  0  0  0  0  0  0
   51.1321   28.7189   15.8340 C   0  0  0  0  0  0  0  0  0  0  0  0
   52.2369   29.6583   16.0664 C   0  0  0  0  0  0  0  0  0  0  0  0
   53.4801   29.2475   16.5619 C   0  0  0  0  0  0  0  0  0  0  0  0
   54.2853   30.3427   16.6654 N   0  0  0  0  0  0  0  0  0  0  0  0
   52.3145   31.0124   15.8774 C   0  0  0  0  0  0  0  0  0  0  0  0
   51.3744   31.9177   15.4081 C   0  0  0  0  0  0  0  0  0  0  0  0
   53.5950   31.4367   16.2524 C   0  0  0  0  0  0  0  0  0  0  0  0
   53.9582   32.7770   16.1646 C   0  0  0  0  0  0  0  0  0  0  0  0
   53.0139   33.6812   15.6940 C   0  0  0  0  0  0  0  0  0  0  0  0
   51.7505   33.2392   15.3275 C   0  0  0  0  0  0  0  0  0  0  0  0
  1  2  1  0
  2  3  2  0
  2  4  1  0
  5  4  1  1
  5  6  1  0
  6  7  2  0
  6  8  1  0
  5  9  1  0
  9 10  1  0
 10 11  2  0
 10 12  1  0
 12 13  1  0
 13 14  2  0
 14 15  1  0
 13 16  1  0
 16 17  2  0
 15 18  1  0
 16 18  1  0
 18 19  2  0
 19 20  1  0
 17 21  1  0
 20 21  2  0
M  END
$$$$
