1K3U_IAD_A_801
     RDKit          3D

 21 22  0  0  0  0  0  0  0  0999 V2000
   61.5841   25.2049    0.6826 O   0  0  0  0  0  0  0  0  0  0  0  0
   61.4359   26.5682    0.6686 C   0  0  0  0  0  0  0  0  0  0  0  0
   60.2633   27.0190    0.8573 O   0  0  0  0  0  0  0  0  0  0  0  0
   62.5027   27.5514    0.4568 C   0  0  0  0  0  0  0  0  0  0  0  0
   61.9278   28.9471    0.4586 C   0  0  1  0  0  0  0  0  0  0  0  0
   61.0030   29.0782   -0.7297 C   0  0  0  0  0  0  0  0  0  0  0  0
   59.7540   28.9518   -0.5982 O   0  0  0  0  0  0  0  0  0  0  0  0
   61.5455   29.3407   -1.9755 O   0  0  0  0  0  0  0  0  0  0  0  0
   61.1871   29.1882    1.6794 N   0  0  0  0  0  0  0  0  0  0  0  0
   61.8852   29.7477    2.7851 C   0  0  0  0  0  0  0  0  0  0  0  0
   63.1134   30.0579    2.7431 O   0  0  0  0  0  0  0  0  0  0  0  0
   61.1415   29.9739    4.0312 C   0  0  0  0  0  0  0  0  0  0  0  0
   61.9989   30.2858    5.1821 C   0  0  0  0  0  0  0  0  0  0  0  0
   62.6464   31.5188    5.3237 C   0  0  0  0  0  0  0  0  0  0  0  0
   63.3597   31.4994    6.4854 N   0  0  0  0  0  0  0  0  0  0  0  0
   62.3375   29.5335    6.2752 C   0  0  0  0  0  0  0  0  0  0  0  0
   61.9766   28.2436    6.6352 C   0  0  0  0  0  0  0  0  0  0  0  0
   63.1874   30.2943    7.0871 C   0  0  0  0  0  0  0  0  0  0  0  0
   63.6924   29.7768    8.2759 C   0  0  0  0  0  0  0  0  0  0  0  0
   63.3288   28.4843    8.6335 C   0  0  0  0  0  0  0  0  0  0  0  0
   62.4849   27.7478    7.8141 C   0  0  0  0  0  0  0  0  0  0  0  0
  1  2  1  0
  2  3  2  0
  2  4  1  0
  5  4  1  1
  5  6  1  0
  6  7  2  0
  6  8  1  0
  5  9  1  0
  9 10  1  0
 10 11  2  0
 10 12  1  0
 12 13  1  0
 13 14  2  0
 14 15  1  0
 13 16  1  0
 16 17  2  0
 15 18  1  0
 16 18  1  0
 18 19  2  0
 19 20  1  0
 17 21  1  0
 20 21  2  0
M  END
$$$$
