1K3U_IAD_A_801
     RDKit          3D

 21 22  0  0  0  0  0  0  0  0999 V2000
   76.3766   22.0006   39.4367 O   0  0  0  0  0  0  0  0  0  0  0  0
   76.2630   22.2199   38.0878 C   0  0  0  0  0  0  0  0  0  0  0  0
   75.1938   21.8202   37.5304 O   0  0  0  0  0  0  0  0  0  0  0  0
   77.2587   22.8715   37.2312 C   0  0  0  0  0  0  0  0  0  0  0  0
   76.7866   22.8724   35.7975 C   0  0  1  0  0  0  0  0  0  0  0  0
   76.6813   21.4376   35.3342 C   0  0  0  0  0  0  0  0  0  0  0  0
   77.7120   20.7223   35.1951 O   0  0  0  0  0  0  0  0  0  0  0  0
   75.4308   20.9113   35.0614 O   0  0  0  0  0  0  0  0  0  0  0  0
   75.4923   23.5133   35.6909 N   0  0  0  0  0  0  0  0  0  0  0  0
   75.3178   24.5033   34.6846 C   0  0  0  0  0  0  0  0  0  0  0  0
   76.2262   24.8186   33.8588 O   0  0  0  0  0  0  0  0  0  0  0  0
   74.0213   25.1886   34.6046 C   0  0  0  0  0  0  0  0  0  0  0  0
   73.6013   25.4991   33.2320 C   0  0  0  0  0  0  0  0  0  0  0  0
   73.1091   26.7568   32.8637 C   0  0  0  0  0  0  0  0  0  0  0  0
   72.8089   26.7289   31.5341 N   0  0  0  0  0  0  0  0  0  0  0  0
   73.5891   24.7237   32.1032 C   0  0  0  0  0  0  0  0  0  0  0  0
   73.9691   23.4046   31.9052 C   0  0  0  0  0  0  0  0  0  0  0  0
   73.0937   25.4947   31.0447 C   0  0  0  0  0  0  0  0  0  0  0  0
   72.9692   24.9584   29.7669 C   0  0  0  0  0  0  0  0  0  0  0  0
   73.3508   23.6366   29.5721 C   0  0  0  0  0  0  0  0  0  0  0  0
   73.8396   22.8904   30.6352 C   0  0  0  0  0  0  0  0  0  0  0  0
  1  2  1  0
  2  3  2  0
  2  4  1  0
  5  4  1  1
  5  6  1  0
  6  7  2  0
  6  8  1  0
  5  9  1  0
  9 10  1  0
 10 11  2  0
 10 12  1  0
 12 13  1  0
 13 14  2  0
 14 15  1  0
 13 16  1  0
 16 17  2  0
 15 18  1  0
 16 18  1  0
 18 19  2  0
 19 20  1  0
 17 21  1  0
 20 21  2  0
M  END
$$$$
