1K3U_IAD_A_801
     RDKit          3D

 21 22  0  0  0  0  0  0  0  0999 V2000
   66.5629   30.7011    2.7465 O   0  0  0  0  0  0  0  0  0  0  0  0
   65.5634   30.8627    3.6715 C   0  0  0  0  0  0  0  0  0  0  0  0
   65.9084   31.2792    4.8209 O   0  0  0  0  0  0  0  0  0  0  0  0
   64.1370   30.6001    3.4573 C   0  0  0  0  0  0  0  0  0  0  0  0
   63.3660   30.8628    4.7282 C   0  0  1  0  0  0  0  0  0  0  0  0
   61.8930   30.7071    4.4274 C   0  0  0  0  0  0  0  0  0  0  0  0
   61.1869   31.7023    4.1044 O   0  0  0  0  0  0  0  0  0  0  0  0
   61.3211   29.4497    4.5109 O   0  0  0  0  0  0  0  0  0  0  0  0
   63.7532   29.9224    5.7591 N   0  0  0  0  0  0  0  0  0  0  0  0
   63.3996   30.2220    7.1038 C   0  0  0  0  0  0  0  0  0  0  0  0
   62.7179   31.2396    7.4301 O   0  0  0  0  0  0  0  0  0  0  0  0
   63.8492   29.3047    8.1590 C   0  0  0  0  0  0  0  0  0  0  0  0
   63.4440   29.7148    9.5098 C   0  0  0  0  0  0  0  0  0  0  0  0
   62.8208   30.9417    9.7667 C   0  0  0  0  0  0  0  0  0  0  0  0
   62.5720   31.0262   11.1045 N   0  0  0  0  0  0  0  0  0  0  0  0
   63.5626   29.0719   10.7132 C   0  0  0  0  0  0  0  0  0  0  0  0
   64.1019   27.8342   11.0306 C   0  0  0  0  0  0  0  0  0  0  0  0
   63.0170   29.8935   11.7070 C   0  0  0  0  0  0  0  0  0  0  0  0
   63.0017   29.4906   13.0387 C   0  0  0  0  0  0  0  0  0  0  0  0
   63.5429   28.2501   13.3531 C   0  0  0  0  0  0  0  0  0  0  0  0
   64.0783   27.4514   12.3524 C   0  0  0  0  0  0  0  0  0  0  0  0
  1  2  1  0
  2  3  2  0
  2  4  1  0
  5  4  1  6
  5  6  1  0
  6  7  2  0
  6  8  1  0
  5  9  1  0
  9 10  1  0
 10 11  2  0
 10 12  1  0
 12 13  1  0
 13 14  2  0
 14 15  1  0
 13 16  1  0
 16 17  2  0
 15 18  1  0
 16 18  1  0
 18 19  2  0
 19 20  1  0
 17 21  1  0
 20 21  2  0
M  END
$$$$
