1GM8_SOX_B_1559
     RDKit          3D

 24 26  0  0  0  0  0  0  0  0999 V2000
    9.9430  -14.1823    2.1432 O   0  0  0  0  0  0  0  0  0  0  0  0
    9.1262  -13.2395    2.1789 C   0  0  0  0  0  0  0  0  0  0  0  0
    8.1935  -12.6979    3.1162 N   0  0  0  0  0  0  0  0  0  0  0  0
    7.2646  -12.6355    4.1729 C   0  0  1  0  0  0  0  0  0  0  0  0
    7.6877  -13.5088    5.3030 C   0  0  0  0  0  0  0  0  0  0  0  0
    8.8939  -13.4717    5.6607 O   0  0  0  0  0  0  0  0  0  0  0  0
    6.8048  -14.3534    5.9677 O   0  0  0  0  0  0  0  0  0  0  0  0
    7.0464  -11.2206    4.5996 C   0  0  1  0  0  0  0  0  0  0  0  0
    5.7266  -10.9945    5.2757 C   0  0  0  0  0  0  0  0  0  0  0  0
    8.2021  -10.5939    5.3037 C   0  0  0  0  0  0  0  0  0  0  0  0
    7.0236  -10.4988    2.9098 S   0  0  1  0  0  4  0  0  0  0  0  0
    8.4476  -11.4148    2.4734 C   0  0  2  0  0  0  0  0  0  0  0  0
    8.6617  -12.1353    1.2469 C   0  0  2  0  0  0  0  0  0  0  0  0
    7.5743  -12.5095    0.3971 N   0  0  0  0  0  0  0  0  0  0  0  0
    7.4926  -12.1628   -0.9825 C   0  0  0  0  0  0  0  0  0  0  0  0
    8.1985  -11.2452   -1.4892 O   0  0  0  0  0  0  0  0  0  0  0  0
    6.5331  -12.9304   -1.8162 C   0  0  0  0  0  0  0  0  0  0  0  0
    6.6447  -12.5986   -3.2460 C   0  0  0  0  0  0  0  0  0  0  0  0
    7.2084  -13.5513   -4.0820 C   0  0  0  0  0  0  0  0  0  0  0  0
    7.3370  -13.2862   -5.4447 C   0  0  0  0  0  0  0  0  0  0  0  0
    6.9086  -12.0804   -5.9798 C   0  0  0  0  0  0  0  0  0  0  0  0
    6.3452  -11.1249   -5.1522 C   0  0  0  0  0  0  0  0  0  0  0  0
    6.2232  -11.4052   -3.7893 C   0  0  0  0  0  0  0  0  0  0  0  0
    5.5863  -11.0110    2.2220 O   0  0  0  0  0  0  0  0  0  0  0  0
  1  2  2  0
  2  3  1  0
  3  4  1  0
  4  5  1  1
  5  6  2  0
  5  7  1  0
  4  8  1  0
  8  9  1  1
 10  8  1  6
  8 11  1  0
 12  3  1  1
 11 12  1  0
  2 13  1  0
 12 13  1  0
 13 14  1  1
 14 15  1  0
 15 16  2  0
 17 15  1  6
 17 18  1  0
 18 19  2  0
 19 20  1  0
 20 21  2  0
 21 22  1  0
 18 23  1  0
 22 23  2  0
 11 24  1  6
M  END
$$$$
