7BKA_4JC_D_201
     RDKit          3D

 12 12  0  0  0  0  0  0  0  0999 V2000
   18.4770   53.8730   15.9500 O   0  0  0  0  0  0  0  0  0  0  0  0
   17.5110   53.6780   14.6200 S   0  0  0  0  0  0  0  0  0  0  0  0
   16.4280   52.7950   15.0890 O   0  0  0  0  0  0  0  0  0  0  0  0
   16.9340   54.8130   14.1120 N   0  0  0  0  0  0  0  0  0  0  0  0
   18.4580   52.9630   13.3790 C   0  0  0  0  0  0  0  0  0  0  0  0
   19.0310   51.7160   13.5850 C   0  0  0  0  0  0  0  0  0  0  0  0
   19.7850   51.1110   12.5720 C   0  0  0  0  0  0  0  0  0  0  0  0
   18.6710   53.6200   12.1630 C   0  0  0  0  0  0  0  0  0  0  0  0
   19.4110   53.0190   11.1670 C   0  0  0  0  0  0  0  0  0  0  0  0
   19.9720   51.7780   11.3540 C   0  0  0  0  0  0  0  0  0  0  0  0
   20.8020   51.1870   10.2220 C   0  0  0  0  0  0  0  0  0  0  0  0
   22.1020   52.0060   10.0360 C   0  0  0  0  0  0  0  0  0  0  0  0
  1  2  2  0
  2  3  2  0
  2  4  1  0
  2  5  1  0
  5  6  2  0
  6  7  1  0
  5  8  1  0
  8  9  2  0
  7 10  2  0
  9 10  1  0
 10 11  1  0
 11 12  1  0
M  END
$$$$
