7QSW_CAP_A_501
     RDKit          3D

 35 34  0  0  0  0  0  0  0  0999 V2000
   80.3290   72.5628   36.6374 C   0  0  0  0  0  0  0  0  0  0  0  0
   81.3828   73.6050   36.9895 C   0  0  1  0  0  0  0  0  0  0  0  0
   82.1941   73.1508   38.2582 C   0  0  1  0  0  0  0  0  0  0  0  0
   81.5880   71.9105   38.9741 C   0  0  1  0  0  0  0  0  0  0  0  0
   80.6338   71.1162   38.0172 C   0  0  0  0  0  0  0  0  0  0  0  0
   82.3405   73.7874   35.7722 C   0  0  0  0  0  0  0  0  0  0  0  0
   79.3215   72.6225   37.5805 O   0  0  0  0  0  0  0  0  0  0  0  0
   80.8240   74.8622   37.2422 O   0  0  0  0  0  0  0  0  0  0  0  0
   83.5230   72.9347   37.8665 O   0  0  0  0  0  0  0  0  0  0  0  0
   82.5925   71.0397   39.4197 O   0  0  0  0  0  0  0  0  0  0  0  0
   80.5853   71.8442   36.7954 O   0  0  0  0  0  0  0  0  0  0  0  0
   82.9768   72.8098   35.3339 O   0  0  0  0  0  0  0  0  0  0  0  0
   82.4131   74.9514   35.3020 O   0  0  0  0  0  0  0  0  0  0  0  0
   79.3335   71.3003   38.7056 P   0  0  1  0  0  5  0  0  0  0  0  0
   81.6443   73.1721   36.6918 P   0  0  1  0  0  5  0  0  0  0  0  0
   78.7251   70.1669   37.8813 O   0  0  0  0  0  0  0  0  0  0  0  0
   80.7968   71.0807   39.1209 O   0  0  0  0  0  0  0  0  0  0  0  0
   78.4379   71.8070   39.8230 O   0  0  0  0  0  0  0  0  0  0  0  0
   80.8163   74.2559   37.3789 O   0  0  0  0  0  0  0  0  0  0  0  0
   82.9169   72.8127   37.4279 O   0  0  0  0  0  0  0  0  0  0  0  0
   81.7915   73.3892   35.1846 O   0  0  0  0  0  0  0  0  0  0  0  0
   80.7700   71.5879   36.6415 H   0  0  0  0  0  0  0  0  0  0  0  0
   79.9316   72.7577   35.6633 H   0  0  0  0  0  0  0  0  0  0  0  0
   82.1445   73.9281   38.9918 H   0  0  0  0  0  0  0  0  0  0  0  0
   81.0342   72.2780   39.8126 H   0  0  0  0  0  0  0  0  0  0  0  0
   79.6555   71.0475   38.4451 H   0  0  0  0  0  0  0  0  0  0  0  0
   80.9886   70.1194   37.8587 H   0  0  0  0  0  0  0  0  0  0  0  0
   80.2167   74.8004   37.9960 H   0  0  0  0  0  0  0  0  0  0  0  0
   83.5534   72.2286   37.2021 H   0  0  0  0  0  0  0  0  0  0  0  0
   83.0935   70.7075   38.6585 H   0  0  0  0  0  0  0  0  0  0  0  0
   81.9058   75.6422   35.6807 H   0  0  0  0  0  0  0  0  0  0  0  0
   81.3042   70.7588   38.3594 H   0  0  0  0  0  0  0  0  0  0  0  0
   77.5350   71.9210   39.4872 H   0  0  0  0  0  0  0  0  0  0  0  0
   82.7229   72.6961   38.3711 H   0  0  0  0  0  0  0  0  0  0  0  0
   80.9278   73.6137   34.8044 H   0  0  0  0  0  0  0  0  0  0  0  0
  1  2  1  0
  2  3  1  0
  3  4  1  0
  4  5  1  0
  2  6  1  0
  1  7  1  0
  2  8  1  1
  3  9  1  0
  4 10  1  0
  5 11  1  0
  6 12  2  0
  6 13  1  0
 14  7  1  6
 15 11  1  6
 14 16  2  0
 14 17  1  0
 14 18  1  0
 15 19  2  0
 15 20  1  0
 15 21  1  0
  1 22  1  0
  1 23  1  0
  3 24  1  1
  4 25  1  1
  5 26  1  0
  5 27  1  0
  8 28  1  0
  9 29  1  0
 10 30  1  0
 13 31  1  0
 17 32  1  0
 18 33  1  0
 20 34  1  0
 21 35  1  0
M  END
