7SCW_GSP_A_202
     RDKit          3D

 48 50  0  0  0  0  0  0  0  0999 V2000
   27.2421   19.2044   -8.1793 P   0  0  1  0  0  5  0  0  0  0  0  0
   26.3428   19.8448   -6.8789 O   0  0  0  0  0  0  0  0  0  0  0  0
   26.5508   17.7045   -8.6907 S   0  0  0  0  0  0  0  0  0  0  0  0
   27.3174   20.2680   -9.4966 O   0  0  0  0  0  0  0  0  0  0  0  0
   28.8170   18.9046   -7.6389 O   0  0  0  0  0  0  0  0  0  0  0  0
   25.6347   21.3152   -7.3739 P   0  0  1  0  0  5  0  0  0  0  0  0
   26.6855   22.2302   -7.9670 O   0  0  0  0  0  0  0  0  0  0  0  0
   24.4203   21.0319   -8.5225 O   0  0  0  0  0  0  0  0  0  0  0  0
   25.9626   21.9072   -4.7053 P   0  0  1  0  0  5  0  0  0  0  0  0
   25.1520   21.6150   -3.4620 O   0  0  0  0  0  0  0  0  0  0  0  0
   27.0428   20.6258   -4.9472 O   0  0  0  0  0  0  0  0  0  0  0  0
   24.9003   22.0574   -6.0286 O   0  0  0  0  0  0  0  0  0  0  0  0
   26.8496   23.3475   -4.4844 O   0  0  0  0  0  0  0  0  0  0  0  0
   26.0229   24.2907   -3.8422 C   0  0  2  0  0  0  0  0  0  0  0  0
   26.8233   25.5659   -3.5449 C   0  0  1  0  0  0  0  0  0  0  0  0
   28.0588   25.2135   -2.9511 O   0  0  0  0  0  0  0  0  0  0  0  0
   27.0765   26.4002   -4.8110 C   0  0  1  0  0  0  0  0  0  0  0  0
   26.8943   27.7661   -4.5345 O   0  0  0  0  0  0  0  0  0  0  0  0
   28.5245   26.1009   -5.1101 C   0  0  1  0  0  0  0  0  0  0  0  0
   29.1957   27.1581   -5.7560 O   0  0  0  0  0  0  0  0  0  0  0  0
   29.0919   25.7694   -3.7342 C   0  0  2  0  0  0  0  0  0  0  0  0
   30.2057   24.8264   -3.8488 N   0  0  0  0  0  0  0  0  0  0  0  0
   30.1862   23.5543   -4.3282 C   0  0  0  0  0  0  0  0  0  0  0  0
   31.4212   22.9836   -4.3950 N   0  0  0  0  0  0  0  0  0  0  0  0
   32.2248   23.9649   -3.9437 C   0  0  0  0  0  0  0  0  0  0  0  0
   33.6048   23.9812   -3.8071 C   0  0  0  0  0  0  0  0  0  0  0  0
   34.3012   22.9725   -4.0988 O   0  0  0  0  0  0  0  0  0  0  0  0
   34.1901   25.1299   -3.3482 N   0  0  0  0  0  0  0  0  0  0  0  0
   33.4342   26.2375   -3.0371 C   0  0  0  0  0  0  0  0  0  0  0  0
   34.0658   27.4278   -2.5668 N   0  0  0  0  0  0  0  0  0  0  0  0
   32.0734   26.2068   -3.1798 N   0  0  0  0  0  0  0  0  0  0  0  0
   31.5039   25.0622   -3.6268 C   0  0  0  0  0  0  0  0  0  0  0  0
   27.8193   19.7742  -10.1930 H   0  0  0  0  0  0  0  0  0  0  0  0
   29.0037   17.9708   -7.9111 H   0  0  0  0  0  0  0  0  0  0  0  0
   24.8787   20.6113   -9.2932 H   0  0  0  0  0  0  0  0  0  0  0  0
   27.9328   21.0016   -4.7295 H   0  0  0  0  0  0  0  0  0  0  0  0
   25.6516   23.8909   -2.8714 H   0  0  0  0  0  0  0  0  0  0  0  0
   25.1506   24.5586   -4.4812 H   0  0  0  0  0  0  0  0  0  0  0  0
   26.2393   26.1633   -2.8098 H   0  0  0  0  0  0  0  0  0  0  0  0
   26.4345   26.0988   -5.6713 H   0  0  0  0  0  0  0  0  0  0  0  0
   25.9486   27.8728   -4.2515 H   0  0  0  0  0  0  0  0  0  0  0  0
   28.5742   25.2005   -5.7630 H   0  0  0  0  0  0  0  0  0  0  0  0
   29.4520   27.8352   -5.0772 H   0  0  0  0  0  0  0  0  0  0  0  0
   29.4450   26.6916   -3.2202 H   0  0  0  0  0  0  0  0  0  0  0  0
   29.2846   23.0434   -4.6387 H   0  0  0  0  0  0  0  0  0  0  0  0
   35.2286   25.1657   -3.2372 H   0  0  0  0  0  0  0  0  0  0  0  0
   35.1019   27.4694   -2.4442 H   0  0  0  0  0  0  0  0  0  0  0  0
   33.4955   28.2728   -2.3411 H   0  0  0  0  0  0  0  0  0  0  0  0
  1  2  1  1
  1  3  2  0
  1  4  1  0
  1  5  1  0
  6  2  1  1
  6  7  2  0
  6  8  1  0
  9 10  2  0
  9 11  1  6
  6 12  1  0
  9 12  1  0
  9 13  1  0
 13 14  1  0
 15 14  1  0
 15 16  1  0
 15 17  1  0
 17 18  1  0
 17 19  1  0
 19 20  1  0
 16 21  1  0
 19 21  1  0
 21 22  1  0
 22 23  1  0
 23 24  2  0
 24 25  1  0
 25 26  1  0
 26 27  2  0
 26 28  1  0
 28 29  1  0
 29 30  1  0
 29 31  2  0
 22 32  1  0
 25 32  2  0
 31 32  1  0
  4 33  1  0
  5 34  1  0
  8 35  1  0
 11 36  1  0
 14 37  1  1
 14 38  1  0
 15 39  1  1
 17 40  1  6
 18 41  1  0
 19 42  1  6
 20 43  1  0
 21 44  1  1
 23 45  1  0
 28 46  1  0
 30 47  1  0
 30 48  1  0
M  END
