1UNL_RRC_A_1293
     RDKit          3D

 26 28  0  0  0  0  0  0  0  0999 V2000
   20.1947   37.1602   53.0088 O   0  0  0  0  0  0  0  0  0  0  0  0
   20.8769   36.0974   53.6279 C   0  0  0  0  0  0  0  0  0  0  0  0
   20.1023   34.8146   53.3100 C   0  0  1  0  0  0  0  0  0  0  0  0
   20.9660   33.6355   53.7610 C   0  0  0  0  0  0  0  0  0  0  0  0
   20.2931   32.6860   54.7301 C   0  0  0  0  0  0  0  0  0  0  0  0
   18.8749   34.9704   54.0775 N   0  0  0  0  0  0  0  0  0  0  0  0
   17.6170   35.0803   53.5787 C   0  0  0  0  0  0  0  0  0  0  0  0
   16.5893   35.2386   54.4476 N   0  0  0  0  0  0  0  0  0  0  0  0
   15.3336   35.3497   53.9817 C   0  0  0  0  0  0  0  0  0  0  0  0
   14.2347   35.5286   54.6776 N   0  0  0  0  0  0  0  0  0  0  0  0
   14.3926   35.6063   56.1388 C   0  0  1  0  0  0  0  0  0  0  0  0
   14.0003   37.0233   56.5553 C   0  0  0  0  0  0  0  0  0  0  0  0
   13.7314   34.4178   56.7849 C   0  0  0  0  0  0  0  0  0  0  0  0
   13.2009   35.6000   53.7921 C   0  0  0  0  0  0  0  0  0  0  0  0
   15.0259   35.2848   52.6700 C   0  0  0  0  0  0  0  0  0  0  0  0
   13.6441   35.4025   52.4975 N   0  0  0  0  0  0  0  0  0  0  0  0
   17.3330   35.0189   52.2646 N   0  0  0  0  0  0  0  0  0  0  0  0
   16.0840   35.1216   51.7917 C   0  0  0  0  0  0  0  0  0  0  0  0
   15.8096   35.1038   50.4805 N   0  0  0  0  0  0  0  0  0  0  0  0
   16.7334   34.5318   49.5036 C   0  0  0  0  0  0  0  0  0  0  0  0
   17.6892   33.5125   50.0781 C   0  0  0  0  0  0  0  0  0  0  0  0
   19.0659   33.7638   50.0700 C   0  0  0  0  0  0  0  0  0  0  0  0
   19.9532   32.8153   50.5933 C   0  0  0  0  0  0  0  0  0  0  0  0
   19.4703   31.6025   51.0923 C   0  0  0  0  0  0  0  0  0  0  0  0
   18.0986   31.3411   51.0785 C   0  0  0  0  0  0  0  0  0  0  0  0
   17.2100   32.2954   50.5735 C   0  0  0  0  0  0  0  0  0  0  0  0
  1  2  1  0
  3  2  1  1
  3  4  1  0
  4  5  1  0
  3  6  1  0
  6  7  1  0
  7  8  2  0
  8  9  1  0
  9 10  1  0
 10 11  1  0
 11 12  1  1
 11 13  1  0
 10 14  1  0
  9 15  2  0
 14 16  2  0
 15 16  1  0
  7 17  1  0
 15 18  1  0
 17 18  2  0
 18 19  1  0
 19 20  1  0
 20 21  1  0
 21 22  2  0
 22 23  1  0
 23 24  2  0
 24 25  1  0
 21 26  1  0
 25 26  2  0
M  END
