7EPV_FDA_A_401
     RDKit          3D

 53 58  0  0  0  0  0  0  0  0999 V2000
    4.7726  -31.2169   -6.8368 P   0  0  2  0  0  5  0  0  0  0  0  0
    6.2267  -31.0247   -6.4979 O   0  0  0  0  0  0  0  0  0  0  0  0
    4.2597  -32.6733   -6.1715 O   0  0  0  0  0  0  0  0  0  0  0  0
    4.5470  -31.2090   -8.5319 O   0  0  0  0  0  0  0  0  0  0  0  0
    4.8343  -29.9286   -8.9447 C   0  0  0  0  0  0  0  0  0  0  0  0
    5.0218  -29.8278  -10.4424 C   0  0  1  0  0  0  0  0  0  0  0  0
    5.1658  -28.5140  -10.8860 O   0  0  0  0  0  0  0  0  0  0  0  0
    6.3300  -30.4301  -10.8931 C   0  0  1  0  0  0  0  0  0  0  0  0
    6.3120  -31.8018  -10.9648 O   0  0  0  0  0  0  0  0  0  0  0  0
    6.4362  -29.8283  -12.3001 C   0  0  1  0  0  0  0  0  0  0  0  0
    6.0325  -30.8018  -13.2033 O   0  0  0  0  0  0  0  0  0  0  0  0
    5.3839  -28.7547  -12.2593 C   0  0  2  0  0  0  0  0  0  0  0  0
    5.7410  -27.5725  -12.9773 N   0  0  0  0  0  0  0  0  0  0  0  0
    6.5746  -26.6041  -12.5697 C   0  0  0  0  0  0  0  0  0  0  0  0
    6.6451  -25.6575  -13.5410 N   0  0  0  0  0  0  0  0  0  0  0  0
    5.8537  -26.0311  -14.5630 C   0  0  0  0  0  0  0  0  0  0  0  0
    5.5342  -25.4772  -15.7954 C   0  0  0  0  0  0  0  0  0  0  0  0
    6.1017  -24.2357  -16.1950 N   0  0  0  0  0  0  0  0  0  0  0  0
    4.6793  -26.1674  -16.5662 N   0  0  0  0  0  0  0  0  0  0  0  0
    4.1157  -27.3307  -16.2500 C   0  0  0  0  0  0  0  0  0  0  0  0
    4.4232  -27.8786  -15.0468 N   0  0  0  0  0  0  0  0  0  0  0  0
    5.2812  -27.2366  -14.2144 C   0  0  0  0  0  0  0  0  0  0  0  0
    3.8191  -31.9962    3.1836 N   0  0  0  0  0  0  0  0  0  0  0  0
    2.9754  -32.6106    4.0098 C   0  0  0  0  0  0  0  0  0  0  0  0
    1.7538  -32.3265    3.9787 O   0  0  0  0  0  0  0  0  0  0  0  0
    3.3585  -33.5425    4.9009 N   0  0  0  0  0  0  0  0  0  0  0  0
    4.6579  -33.8793    4.9703 C   0  0  0  0  0  0  0  0  0  0  0  0
    5.0434  -34.7512    5.7980 O   0  0  0  0  0  0  0  0  0  0  0  0
    5.5389  -33.2420    4.1119 C   0  0  0  0  0  0  0  0  0  0  0  0
    6.9050  -33.6205    4.2109 N   0  0  0  0  0  0  0  0  0  0  0  0
    7.8240  -32.9756    3.3388 C   0  0  0  0  0  0  0  0  0  0  0  0
    9.1553  -33.3470    3.4669 C   0  0  0  0  0  0  0  0  0  0  0  0
   10.1140  -32.7645    2.6830 C   0  0  0  0  0  0  0  0  0  0  0  0
   11.5528  -33.1248    2.7780 C   0  0  0  0  0  0  0  0  0  0  0  0
    9.7380  -31.8078    1.7697 C   0  0  0  0  0  0  0  0  0  0  0  0
   10.7783  -31.1693    0.9141 C   0  0  0  0  0  0  0  0  0  0  0  0
    8.4015  -31.4476    1.6534 C   0  0  0  0  0  0  0  0  0  0  0  0
    7.4094  -32.0164    2.4265 C   0  0  0  0  0  0  0  0  0  0  0  0
    6.0312  -31.6257    2.3142 N   0  0  0  0  0  0  0  0  0  0  0  0
    5.1315  -32.2851    3.1999 C   0  0  0  0  0  0  0  0  0  0  0  0
    5.6243  -30.6750    1.3134 C   0  0  0  0  0  0  0  0  0  0  0  0
    5.1103  -31.4445    0.1123 C   0  0  2  0  0  0  0  0  0  0  0  0
    6.0394  -32.3646   -0.3880 O   0  0  0  0  0  0  0  0  0  0  0  0
    4.6639  -30.5507   -1.0237 C   0  0  2  0  0  0  0  0  0  0  0  0
    3.8816  -29.5310   -0.5386 O   0  0  0  0  0  0  0  0  0  0  0  0
    4.0417  -31.2351   -2.1828 C   0  0  2  0  0  0  0  0  0  0  0  0
    4.6368  -32.4213   -2.5384 O   0  0  0  0  0  0  0  0  0  0  0  0
    3.9854  -30.3424   -3.4191 C   0  0  0  0  0  0  0  0  0  0  0  0
    2.6584  -30.2348   -3.7919 O   0  0  0  0  0  0  0  0  0  0  0  0
    2.4969  -30.3115   -5.4719 P   0  0  1  0  0  5  0  0  0  0  0  0
    2.1534  -31.7245   -5.8845 O   0  0  0  0  0  0  0  0  0  0  0  0
    1.2162  -29.3227   -5.9545 O   0  0  0  0  0  0  0  0  0  0  0  0
    3.9387  -29.8902   -6.2422 O   0  0  0  0  0  0  0  0  0  0  0  0
  1  2  2  0
  1  3  1  1
  1  4  1  0
  5  4  1  1
  6  5  1  0
  6  7  1  1
  6  8  1  0
  8  9  1  6
  8 10  1  0
 10 11  1  6
  7 12  1  0
 10 12  1  0
 12 13  1  6
 13 14  1  0
 14 15  2  0
 15 16  1  0
 16 17  2  0
 17 18  1  0
 17 19  1  0
 19 20  2  0
 20 21  1  0
 13 22  1  0
 16 22  1  0
 21 22  2  0
 23 24  1  0
 24 25  2  0
 24 26  1  0
 26 27  1  0
 27 28  2  0
 27 29  1  0
 29 30  1  0
 30 31  1  0
 31 32  2  0
 32 33  1  0
 34 33  1  6
 33 35  2  0
 36 35  1  1
 35 37  1  0
 31 38  1  0
 37 38  2  0
 38 39  1  0
 23 40  1  0
 29 40  2  0
 39 40  1  0
 41 39  1  6
 41 42  1  0
 42 43  1  6
 42 44  1  0
 44 45  1  1
 44 46  1  0
 46 47  1  6
 46 48  1  0
 48 49  1  6
 50 49  1  0
 50 51  2  0
 50 52  1  6
  1 53  1  0
 50 53  1  0
M  END
$$$$
