
     RDKit          3D

 48 53  0  0  0  0  0  0  0  0999 V2000
  -43.1372   -2.6394   -2.3088 C   0  0  0  0  0  0  0  0  0  0  0  0
  -41.3276   -1.4748   -1.1721 C   0  0  0  0  0  0  0  0  0  0  0  0
  -40.4358   -0.3373   -1.1932 C   0  0  0  0  0  0  0  0  0  0  0  0
  -39.4138    0.1400   -0.3227 C   0  0  0  0  0  0  0  0  0  0  0  0
  -38.8986   -0.3717    0.9366 C   0  0  0  0  0  0  0  0  0  0  0  0
  -37.6970    0.1094    1.4653 C   0  0  0  0  0  0  0  0  0  0  0  0
  -37.2040   -0.3961    2.6718 C   0  0  0  0  0  0  0  0  0  0  0  0
  -37.8994   -1.3958    3.3598 C   0  0  0  0  0  0  0  0  0  0  0  0
  -39.0958   -1.9027    2.8250 C   0  0  0  0  0  0  0  0  0  0  0  0
  -39.8127   -2.9885    3.5390 C   0  0  0  0  0  0  0  0  0  0  0  0
  -39.5992   -1.3735    1.6273 C   0  0  0  0  0  0  0  0  0  0  0  0
  -38.9128    1.2937   -0.9077 C   0  0  0  0  0  0  0  0  0  0  0  0
  -39.2834    2.5627   -3.0406 C   0  0  0  0  0  0  0  0  0  0  0  0
  -37.9108    3.1491   -2.7660 C   0  0  0  0  0  0  0  0  0  0  0  0
  -37.2476    4.9228   -4.4178 C   0  0  0  0  0  0  0  0  0  0  0  0
  -38.0473    5.1687   -5.5393 C   0  0  0  0  0  0  0  0  0  0  0  0
  -37.4970    5.6500   -6.7321 C   0  0  0  0  0  0  0  0  0  0  0  0
  -39.4827    6.7967   -7.6243 C   0  0  2  0  0  0  0  0  0  0  0  0
  -40.6961    5.9069   -7.3443 C   0  0  0  0  0  0  0  0  0  0  0  0
  -39.7171    7.7249   -8.8536 C   0  0  0  0  0  0  0  0  0  0  0  0
  -39.5385    7.9699  -11.2535 C   0  0  0  0  0  0  0  0  0  0  0  0
  -40.7115    8.0537  -12.2520 C   0  0  0  0  0  0  0  0  0  0  0  0
  -39.9686    9.4102  -10.9107 C   0  0  0  0  0  0  0  0  0  0  0  0
  -38.9513    5.8566  -10.2244 C   0  0  0  0  0  0  0  0  0  0  0  0
  -37.7876    5.8255   -9.2099 C   0  0  0  0  0  0  0  0  0  0  0  0
  -35.3909    5.6233   -5.7276 C   0  0  0  0  0  0  0  0  0  0  0  0
  -35.8805    5.1765   -4.5158 C   0  0  0  0  0  0  0  0  0  0  0  0
  -40.5078    0.5186   -2.2684 C   0  0  0  0  0  0  0  0  0  0  0  0
  -42.1565   -0.5721   -3.3168 C   0  0  0  0  0  0  0  0  0  0  0  0
  -43.1514   -0.7343   -4.4818 C   0  0  0  0  0  0  0  0  0  0  0  0
  -42.9162    0.1529   -5.4867 F   0  0  0  0  0  0  0  0  0  0  0  0
  -44.4373   -0.5344   -4.0868 F   0  0  0  0  0  0  0  0  0  0  0  0
  -43.1171   -1.9731   -5.0474 F   0  0  0  0  0  0  0  0  0  0  0  0
  -42.1829   -1.5394   -2.2872 N   0  0  0  0  0  0  0  0  0  0  0  0
  -40.6982   -2.6482    4.5208 N   0  0  0  0  0  0  0  0  0  0  0  0
  -39.5707    1.4986   -2.0961 N   0  0  0  0  0  0  0  0  0  0  0  0
  -37.7719    4.4632   -3.1798 N   0  0  0  0  0  0  0  0  0  0  0  0
  -38.2732    5.9700   -7.8318 N   0  0  0  0  0  0  0  0  0  0  0  0
  -39.8537    7.0290  -10.1578 N   0  0  0  0  0  0  0  0  0  0  0  0
  -36.1620    5.8499   -6.8162 N   0  0  0  0  0  0  0  0  0  0  0  0
  -41.3309    0.4458   -3.3339 N   0  0  0  0  0  0  0  0  0  0  0  0
  -41.3275   -2.2927   -0.2576 O   0  0  0  0  0  0  0  0  0  0  0  0
  -37.3766   -1.8648    4.5416 O   0  0  0  0  0  0  0  0  0  0  0  0
  -39.6520   -4.1606    3.2141 O   0  0  0  0  0  0  0  0  0  0  0  0
  -40.6995    9.5083  -12.1693 O   0  0  0  0  0  0  0  0  0  0  0  0
  -37.0395    2.4777   -2.2138 O   0  0  0  0  0  0  0  0  0  0  0  0
  -35.7139    0.2397    3.2763 Cl  0  0  0  0  0  0  0  0  0  0  0  0
  -34.8082    4.9327   -3.1902 Cl  0  0  0  0  0  0  0  0  0  0  0  0
  2  3  4  0
  3  4  4  0
  4  5  1  0
  5  6  4  0
  6  7  4  0
  7  8  4  0
  8  9  4  0
  9 10  1  0
  9 11  4  0
  5 11  4  0
  4 12  4  0
 13 14  1  0
 15 16  4  0
 16 17  4  0
 18 19  1  6
 18 20  1  0
 21 22  1  0
 21 23  1  0
 24 25  1  0
 15 27  4  0
 26 27  4  0
  3 28  4  0
 29 30  1  0
 30 31  1  0
 30 32  1  0
 30 33  1  0
  2 34  4  0
  1 34  1  0
 29 34  4  0
 10 35  1  0
 12 36  4  0
 13 36  1  0
 28 36  4  0
 14 37  1  0
 15 37  1  0
 17 38  1  0
 18 38  1  0
 25 38  1  0
 20 39  1  0
 24 39  1  0
 21 39  1  0
 26 40  4  0
 17 40  4  0
 28 41  4  0
 29 41  4  0
  2 42  2  0
  8 43  1  0
 10 44  2  0
 22 45  1  0
 23 45  1  0
 14 46  2  0
  7 47  1  0
 27 48  1  0
M  END
