7B0E_C2E_A_401
     RDKit          3D

 46 52  0  0  0  0  0  0  0  0999 V2000
  -20.9597  -24.3420   -0.8408 P   0  0  1  0  0  0  0  0  0  0  0  0
  -21.7638  -23.0258   -0.9544 O   0  0  0  0  0  0  0  0  0  0  0  0
  -21.5151  -25.3210    0.1186 O   0  0  0  0  0  0  0  0  0  0  0  0
  -20.7989  -24.8791   -2.3301 O   0  0  0  0  0  0  0  0  0  0  0  0
  -20.3267  -26.1938   -2.6254 C   0  0  0  0  0  0  0  0  0  0  0  0
  -20.4031  -26.4943   -4.0995 C   0  0  1  0  0  0  0  0  0  0  0  0
  -21.7868  -26.5400   -4.5124 O   0  0  0  0  0  0  0  0  0  0  0  0
  -19.8157  -25.4469   -5.0304 C   0  0  1  0  0  0  0  0  0  0  0  0
  -18.4013  -25.4948   -5.0765 O   0  0  0  0  0  0  0  0  0  0  0  0
  -20.4814  -25.8110   -6.3551 C   0  0  1  0  0  0  0  0  0  0  0  0
  -19.9618  -26.9953   -6.9598 O   0  0  0  0  0  0  0  0  0  0  0  0
  -21.9005  -26.1332   -5.8674 C   0  0  2  0  0  0  0  0  0  0  0  0
  -22.8209  -24.9915   -5.9166 N   0  0  0  0  0  0  0  0  0  0  0  0
  -23.5697  -24.3544   -4.8869 C   0  0  0  0  0  0  0  0  0  0  0  0
  -24.3531  -23.3609   -5.3833 N   0  0  0  0  0  0  0  0  0  0  0  0
  -24.0896  -23.3638   -6.7674 C   0  0  0  0  0  0  0  0  0  0  0  0
  -24.6404  -22.5396   -7.7942 C   0  0  0  0  0  0  0  0  0  0  0  0
  -25.4573  -21.6387   -7.7368 O   0  0  0  0  0  0  0  0  0  0  0  0
  -24.1242  -22.8671   -9.0960 N   0  0  0  0  0  0  0  0  0  0  0  0
  -23.1926  -23.8676   -9.3090 C   0  0  0  0  0  0  0  0  0  0  0  0
  -22.7962  -24.1047  -10.5999 N   0  0  0  0  0  0  0  0  0  0  0  0
  -22.6489  -24.6546   -8.3440 N   0  0  0  0  0  0  0  0  0  0  0  0
  -23.1524  -24.3500   -7.1003 C   0  0  0  0  0  0  0  0  0  0  0  0
  -17.4829  -24.1974   -5.1103 P   0  0  2  0  0  0  0  0  0  0  0  0
  -18.0810  -23.1835   -6.1147 O   0  0  0  0  0  0  0  0  0  0  0  0
  -16.0309  -24.5839   -5.2658 O   0  0  0  0  0  0  0  0  0  0  0  0
  -17.7560  -23.5202   -3.7033 O   0  0  0  0  0  0  0  0  0  0  0  0
  -17.0828  -23.9812   -2.5292 C   0  0  0  0  0  0  0  0  0  0  0  0
  -17.3727  -23.0924   -1.3490 C   0  0  1  0  0  0  0  0  0  0  0  0
  -16.8295  -21.7741   -1.5767 O   0  0  0  0  0  0  0  0  0  0  0  0
  -18.8397  -22.7998   -1.1042 C   0  0  1  0  0  0  0  0  0  0  0  0
  -19.4627  -23.9000   -0.4898 O   0  0  0  0  0  0  0  0  0  0  0  0
  -18.7647  -21.5675   -0.2082 C   0  0  1  0  0  0  0  0  0  0  0  0
  -18.4093  -21.9040    1.1303 O   0  0  0  0  0  0  0  0  0  0  0  0
  -17.5992  -20.8149   -0.8691 C   0  0  2  0  0  0  0  0  0  0  0  0
  -18.0551  -19.8156   -1.8372 N   0  0  0  0  0  0  0  0  0  0  0  0
  -17.9006  -19.7415   -3.2508 C   0  0  0  0  0  0  0  0  0  0  0  0
  -18.4103  -18.5765   -3.7418 N   0  0  0  0  0  0  0  0  0  0  0  0
  -18.9018  -17.9003   -2.6047 C   0  0  0  0  0  0  0  0  0  0  0  0
  -19.5192  -16.6132   -2.4964 C   0  0  0  0  0  0  0  0  0  0  0  0
  -19.7488  -15.7602   -3.3407 O   0  0  0  0  0  0  0  0  0  0  0  0
  -19.8714  -16.2809   -1.1387 N   0  0  0  0  0  0  0  0  0  0  0  0
  -19.6260  -17.1281   -0.0652 C   0  0  0  0  0  0  0  0  0  0  0  0
  -19.9826  -16.7073    1.1957 N   0  0  0  0  0  0  0  0  0  0  0  0
  -19.0397  -18.3496   -0.1565 N   0  0  0  0  0  0  0  0  0  0  0  0
  -18.6977  -18.6627   -1.4454 C   0  0  0  0  0  0  0  0  0  0  0  0
  1  2  1  6
  1  3  2  0
  1  4  1  0
  4  5  1  0
  6  5  1  1
  6  7  1  0
  6  8  1  0
  8  9  1  6
  8 10  1  0
 10 11  1  1
 10 12  1  0
  7 12  1  0
 12 13  1  1
 13 14  1  0
 14 15  2  0
 15 16  1  0
 16 17  1  0
 17 18  2  0
 17 19  1  0
 19 20  1  0
 20 21  1  0
 20 22  2  0
 13 23  1  0
 22 23  1  0
 16 23  2  0
  9 24  1  0
 24 25  1  6
 24 26  2  0
 24 27  1  0
 27 28  1  0
 29 28  1  6
 29 30  1  0
 29 31  1  0
 31 32  1  1
  1 32  1  0
 31 33  1  0
 33 34  1  1
 30 35  1  0
 33 35  1  0
 35 36  1  6
 36 37  1  0
 37 38  2  0
 38 39  1  0
 39 40  1  0
 40 41  2  0
 40 42  1  0
 42 43  1  0
 43 44  1  0
 43 45  2  0
 36 46  1  0
 39 46  2  0
 45 46  1  0
M  END
