1Y6B_AAX_A_201
     RDKit          3D

 34 38  0  0  0  0  0  0  0  0999 V2000
    1.4237   18.1287   33.3605 O   0  0  0  0  0  0  0  0  0  0  0  0
    2.2484   17.0560   32.7114 S   0  0  1  0  0  0  0  0  0  0  0  0
    1.6272   15.7332   33.0594 O   0  0  0  0  0  0  0  0  0  0  0  0
    2.2261   17.1936   30.9832 N   0  0  0  0  0  0  0  0  0  0  0  0
    1.6890   18.4368   30.5182 C   0  0  0  0  0  0  0  0  0  0  0  0
    1.7000   18.4339   29.0070 C   0  0  2  0  0  0  0  0  0  0  0  0
    2.9344   19.0973   28.4079 C   0  0  0  0  0  0  0  0  0  0  0  0
    1.5346   19.7512   28.2558 C   0  0  0  0  0  0  0  0  0  0  0  0
    3.8985   17.1784   33.3128 C   0  0  0  0  0  0  0  0  0  0  0  0
    4.0579   17.1032   34.6819 C   0  0  0  0  0  0  0  0  0  0  0  0
    5.3036   17.1865   35.2712 C   0  0  0  0  0  0  0  0  0  0  0  0
    4.9755   17.3405   32.4666 C   0  0  0  0  0  0  0  0  0  0  0  0
    6.2210   17.4239   33.0533 C   0  0  0  0  0  0  0  0  0  0  0  0
    6.3887   17.3487   34.4340 C   0  0  0  0  0  0  0  0  0  0  0  0
    7.6417   17.4328   35.0225 O   0  0  0  0  0  0  0  0  0  0  0  0
    7.8623   17.1496   36.3916 C   0  0  0  0  0  0  0  0  0  0  0  0
    7.4069   17.5935   32.2788 N   0  0  0  0  0  0  0  0  0  0  0  0
    7.4215   18.4275   31.1020 C   0  0  0  0  0  0  0  0  0  0  0  0
    8.4105   18.5400   30.2310 O   0  0  0  0  0  0  0  0  0  0  0  0
    8.0905   19.3822   29.2849 C   0  0  0  0  0  0  0  0  0  0  0  0
    6.8188   19.8217   29.5880 C   0  0  0  0  0  0  0  0  0  0  0  0
    6.4087   19.2260   30.7164 N   0  0  0  0  0  0  0  0  0  0  0  0
    8.8484   19.8243   28.1201 C   0  0  0  0  0  0  0  0  0  0  0  0
   10.1962   19.5714   27.9648 C   0  0  0  0  0  0  0  0  0  0  0  0
   10.9101   19.9988   26.8490 C   0  0  0  0  0  0  0  0  0  0  0  0
   10.2705   20.7035   25.8465 C   0  0  0  0  0  0  0  0  0  0  0  0
    8.9150   20.9571   26.0043 C   0  0  0  0  0  0  0  0  0  0  0  0
    8.2119   20.5291   27.1160 C   0  0  0  0  0  0  0  0  0  0  0  0
   12.3303   19.6668   26.8023 C   0  0  0  0  0  0  0  0  0  0  0  0
   12.8908   19.0197   27.9026 C   0  0  0  0  0  0  0  0  0  0  0  0
   14.2016   18.6859   27.9188 N   0  0  0  0  0  0  0  0  0  0  0  0
   15.0100   18.9710   26.8643 C   0  0  0  0  0  0  0  0  0  0  0  0
   14.4768   19.6138   25.7587 C   0  0  0  0  0  0  0  0  0  0  0  0
   13.1404   19.9619   25.7253 C   0  0  0  0  0  0  0  0  0  0  0  0
  1  2  2  0
  2  3  2  0
  2  4  1  6
  4  5  1  0
  6  5  1  1
  6  7  1  0
  6  8  1  0
  7  8  1  0
  2  9  1  0
  9 10  2  0
 10 11  1  0
  9 12  1  0
 12 13  2  0
 11 14  2  0
 13 14  1  0
 14 15  1  0
 15 16  1  0
 13 17  1  0
 17 18  1  0
 18 19  1  0
 19 20  1  0
 20 21  2  0
 18 22  2  0
 21 22  1  0
 20 23  1  0
 23 24  2  0
 24 25  1  0
 25 26  2  0
 26 27  1  0
 23 28  1  0
 27 28  2  0
 25 29  1  0
 29 30  2  0
 30 31  1  0
 31 32  2  0
 32 33  1  0
 29 34  1  0
 33 34  2  0
M  END
$$$$
