1UML_FR4_A_1001
     RDKit          3D

 60 63  0  0  0  0  0  0  0  0999 V2000
   50.8325   49.4735   19.7146 C   0  0  0  0  0  0  0  0  0  0  0  0
   49.4542   49.1359   19.3467 N   0  0  0  0  0  4  0  0  0  0  0  0
   48.5890   49.9157   20.0152 C   0  0  0  0  0  0  0  0  0  0  0  0
   49.2760   50.7557   20.7972 N   0  0  0  0  0  0  0  0  0  0  0  0
   50.6906   50.4856   20.5817 C   0  0  0  0  0  0  0  0  0  0  0  0
   51.7963   51.2229   21.2290 C   0  0  0  0  0  0  0  0  0  0  0  0
   52.8836   51.2124   20.6833 O   0  0  0  0  0  0  0  0  0  0  0  0
   51.5640   51.8798   22.3686 N   0  0  0  0  0  0  0  0  0  0  0  0
   49.0480   48.0927   18.4116 C   0  0  2  0  0  0  0  0  0  0  0  0
   49.0249   48.6215   16.9664 C   0  0  0  0  0  0  0  0  0  0  0  0
   49.6357   49.8789   16.8364 O   0  0  0  0  0  0  0  0  0  0  0  0
   47.7153   47.4303   18.8081 C   0  0  0  0  0  0  0  0  0  0  0  0
   46.5405   48.3965   18.9936 C   0  0  0  0  0  0  0  0  0  0  0  0
   46.3312   49.1691   17.7670 N   0  0  0  0  0  4  0  0  0  0  0  0
   45.1720   49.7127   17.3025 C   0  0  0  0  0  0  0  0  0  0  0  0
   45.3873   50.3371   16.0694 C   0  0  0  0  0  0  0  0  0  0  0  0
   46.7870   50.1589   15.7819 C   0  0  0  0  0  0  0  0  0  0  0  0
   47.3478   49.4231   16.8674 C   0  0  0  0  0  0  0  0  0  0  0  0
   47.5744   50.5545   14.7330 C   0  0  0  0  0  0  0  0  0  0  0  0
   48.9302   50.2260   14.7355 C   0  0  0  0  0  0  0  0  0  0  0  0
   49.4872   49.4911   15.7980 C   0  0  0  0  0  0  0  0  0  0  0  0
   48.6743   49.0979   16.8644 C   0  0  0  0  0  0  0  0  0  0  0  0
   50.7940   49.1181   15.8360 N   0  0  0  0  0  0  0  0  0  0  0  0
   51.6957   49.2460   14.8320 C   0  0  0  0  0  0  0  0  0  0  0  0
   52.8326   49.7071   14.9304 O   0  0  0  0  0  0  0  0  0  0  0  0
   51.1222   48.7473   13.5154 C   0  0  0  0  0  0  0  0  0  0  0  0
   49.9106   49.5745   13.0742 C   0  0  0  0  0  0  0  0  0  0  0  0
   48.4565   48.4130   14.7926 C   0  0  0  0  0  0  0  0  0  0  0  0
   48.5899   48.9794   13.5255 C   0  0  0  0  0  0  0  0  0  0  0  0
   47.4875   49.0426   12.6762 C   0  0  0  0  0  0  0  0  0  0  0  0
   46.2559   48.5626   13.0970 C   0  0  0  0  0  0  0  0  0  0  0  0
   46.1162   48.0241   14.3764 C   0  0  0  0  0  0  0  0  0  0  0  0
   47.2162   47.9457   15.2178 C   0  0  0  0  0  0  0  0  0  0  0  0
   51.7063   49.0351   19.3838 H   0  0  0  0  0  0  0  0  0  0  0  0
   47.5607   49.8735   19.9381 H   0  0  0  0  0  0  0  0  0  0  0  0
   50.6670   51.8600   22.7741 H   0  0  0  0  0  0  0  0  0  0  0  0
   52.2896   52.3838   22.8030 H   0  0  0  0  0  0  0  0  0  0  0  0
   49.7872   47.3205   18.4612 H   0  0  0  0  0  0  0  0  0  0  0  0
   49.5407   47.9246   16.3393 H   0  0  0  0  0  0  0  0  0  0  0  0
   47.9997   48.7306   16.6802 H   0  0  0  0  0  0  0  0  0  0  0  0
   50.5697   49.8124   17.0897 H   0  0  0  0  0  0  0  0  0  0  0  0
   47.4518   46.7308   18.0425 H   0  0  0  0  0  0  0  0  0  0  0  0
   47.8806   46.9748   19.7622 H   0  0  0  0  0  0  0  0  0  0  0  0
   45.6549   47.8392   19.2172 H   0  0  0  0  0  0  0  0  0  0  0  0
   46.7596   49.0665   19.7986 H   0  0  0  0  0  0  0  0  0  0  0  0
   44.2638   49.6699   17.7908 H   0  0  0  0  0  0  0  0  0  0  0  0
   44.6884   50.8242   15.4869 H   0  0  0  0  0  0  0  0  0  0  0  0
   47.1689   51.0899   13.9494 H   0  0  0  0  0  0  0  0  0  0  0  0
   49.5302   50.5248   13.9507 H   0  0  0  0  0  0  0  0  0  0  0  0
   49.0761   48.5620   17.6494 H   0  0  0  0  0  0  0  0  0  0  0  0
   51.1169   48.7157   16.6745 H   0  0  0  0  0  0  0  0  0  0  0  0
   51.8788   48.8115   12.7614 H   0  0  0  0  0  0  0  0  0  0  0  0
   50.8025   47.7356   13.6533 H   0  0  0  0  0  0  0  0  0  0  0  0
   50.0004   50.5575   13.4871 H   0  0  0  0  0  0  0  0  0  0  0  0
   49.9059   49.5894   12.0044 H   0  0  0  0  0  0  0  0  0  0  0  0
   49.2768   48.3404   15.4147 H   0  0  0  0  0  0  0  0  0  0  0  0
   47.5873   49.4473   11.7321 H   0  0  0  0  0  0  0  0  0  0  0  0
   45.4424   48.6038   12.4632 H   0  0  0  0  0  0  0  0  0  0  0  0
   45.1956   47.6846   14.6965 H   0  0  0  0  0  0  0  0  0  0  0  0
   47.1148   47.5400   16.1612 H   0  0  0  0  0  0  0  0  0  0  0  0
  1  2  4  0
  2  3  4  0
  3  4  4  0
  1  5  4  0
  4  5  4  0
  5  6  1  0
  6  7  2  0
  6  8  1  0
  2  9  1  0
  9 10  1  0
 10 11  1  0
  9 12  1  0
 12 13  1  0
 13 14  1  0
 14 15  4  0
 15 16  4  0
 16 17  4  0
 14 18  4  0
 17 18  4  0
 17 19  4  0
 19 20  4  0
 20 21  4  0
 18 22  4  0
 21 22  4  0
 21 23  1  0
 23 24  1  0
 24 25  2  0
 24 26  1  0
 26 27  1  0
 27 29  1  0
 28 29  4  0
 29 30  4  0
 30 31  4  0
 31 32  4  0
 28 33  4  0
 32 33  4  0
  1 34  1  0
  3 35  1  0
  8 36  1  0
  8 37  1  0
  9 38  1  1
 10 39  1  0
 10 40  1  0
 11 41  1  0
 12 42  1  0
 12 43  1  0
 13 44  1  0
 13 45  1  0
 15 46  1  0
 16 47  1  0
 19 48  1  0
 20 49  1  0
 22 50  1  0
 23 51  1  0
 26 52  1  0
 26 53  1  0
 27 54  1  0
 27 55  1  0
 28 56  1  0
 30 57  1  0
 31 58  1  0
 32 59  1  0
 33 60  1  0
M  CHG  2   2   1  14   1
M  END
