6Z5Z_BDF_A_103
     RDKit          3D

 12 12  0  0  0  0  0  0  0  0999 V2000
   -0.2848   13.5536  -11.3054 C   0  0  0  0  0  0  0  0  0  0  0  0
    0.0463   13.8539   -9.8399 C   0  0  1  0  0  0  0  0  0  0  0  0
    0.0841   12.6416   -8.9899 C   0  0  2  0  0  0  0  0  0  0  0  0
   -1.0044   12.4649   -8.0135 C   0  0  1  0  0  0  0  0  0  0  0  0
   -1.8802   13.6597   -7.7882 C   0  0  1  0  0  0  0  0  0  0  0  0
   -2.0087   14.4708   -9.0572 C   0  0  0  0  0  0  0  0  0  0  0  0
    0.4234   12.3913  -11.6136 O   0  0  0  0  0  0  0  0  0  0  0  0
    1.3697   14.3547   -9.9230 O   0  0  0  0  0  0  0  0  0  0  0  0
    1.3137   12.5252   -8.3028 O   0  0  0  0  0  0  0  0  0  0  0  0
   -1.8428   11.3865   -8.3579 O   0  0  0  0  0  0  0  0  0  0  0  0
   -3.1848   13.2306   -7.4776 O   0  0  0  0  0  0  0  0  0  0  0  0
   -0.7287   14.8895   -9.3887 O   0  0  0  0  0  0  0  0  0  0  0  0
  1  2  1  0
  2  3  1  0
  3  4  1  0
  4  5  1  0
  5  6  1  0
  1  7  1  6
  2  8  1  6
  3  9  1  1
  4 10  1  6
  5 11  1  6
  2 12  1  0
  6 12  1  1
M  END
$$$$
