
     RDKit          3D

 35 37  0  0  0  0  0  0  0  0999 V2000
  -14.6159  -11.9349   23.1071 C   0  0  0  0  0  0  0  0  0  0  0  0
  -15.2663  -10.5662   22.9682 C   0  0  0  0  0  0  0  0  0  0  0  0
  -15.0673   -9.9940   21.5667 C   0  0  0  0  0  0  0  0  0  0  0  0
  -15.4561   -8.5158   21.4136 C   0  0  0  0  0  0  0  0  0  0  0  0
  -14.2721   -7.5631   21.1423 C   0  0  1  0  0  0  0  0  0  0  0  0
  -15.6819   -7.8282   26.2632 C   0  0  0  0  0  0  0  0  0  0  0  0
  -15.7652   -9.1147   26.8364 C   0  0  0  0  0  0  0  0  0  0  0  0
  -17.0193   -9.6490   27.1544 C   0  0  0  0  0  0  0  0  0  0  0  0
  -18.1824   -8.9234   26.9100 C   0  0  0  0  0  0  0  0  0  0  0  0
  -18.1281   -7.6469   26.3433 C   0  0  0  0  0  0  0  0  0  0  0  0
  -13.1291   -7.7968   22.1639 C   0  0  0  0  0  0  0  0  0  0  0  0
  -11.6243   -7.2368   18.7278 C   0  0  0  0  0  0  0  0  0  0  0  0
  -10.6287   -6.0921   18.5132 C   0  0  0  0  0  0  0  0  0  0  0  0
  -10.4136   -5.8221   17.0437 C   0  0  0  0  0  0  0  0  0  0  0  0
  -10.4281   -4.5108   16.5506 C   0  0  0  0  0  0  0  0  0  0  0  0
  -10.2495   -4.2665   15.1880 C   0  0  0  0  0  0  0  0  0  0  0  0
  -12.3767   -9.3521   24.6614 C   0  0  0  0  0  0  0  0  0  0  0  0
  -12.5642   -7.8406   24.5792 C   0  0  2  0  0  0  0  0  0  0  0  0
  -13.1381   -7.3129   25.8982 C   0  0  0  0  0  0  0  0  0  0  0  0
  -14.5990   -6.9935   25.8341 C   0  0  0  0  0  0  0  0  0  0  0  0
  -15.1590   -5.8265   25.3524 C   0  0  0  0  0  0  0  0  0  0  0  0
  -16.8658   -7.1274   26.0320 C   0  0  0  0  0  0  0  0  0  0  0  0
  -13.0171   -6.7356   19.1409 C   0  0  1  0  0  0  0  0  0  0  0  0
  -13.7351   -6.2223   17.8889 C   0  0  0  0  0  0  0  0  0  0  0  0
  -10.0589   -5.3294   14.3068 C   0  0  0  0  0  0  0  0  0  0  0  0
  -10.0477   -6.6376   14.7867 C   0  0  0  0  0  0  0  0  0  0  0  0
  -10.2266   -6.8839   16.1487 C   0  0  0  0  0  0  0  0  0  0  0  0
  -16.5188   -5.9173   25.4789 N   0  0  0  0  0  0  0  0  0  0  0  0
  -13.5103   -7.5908   23.4797 N   0  0  0  0  0  0  0  0  0  0  0  0
  -13.7746   -7.8438   19.7693 N   0  0  0  0  0  0  0  0  0  0  0  0
  -11.5070   -9.9901   24.0810 O   0  0  0  0  0  0  0  0  0  0  0  0
  -13.2808   -9.9714   25.4426 O   0  0  0  0  0  0  0  0  0  0  0  0
  -13.2449   -6.0546   16.7826 O   0  0  0  0  0  0  0  0  0  0  0  0
  -15.0375   -5.9491   18.1051 O   0  0  0  0  0  0  0  0  0  0  0  0
  -11.9814   -8.0971   21.8505 O   0  0  0  0  0  0  0  0  0  0  0  0
  1  2  1  0
  2  3  1  0
  3  4  1  0
  5  4  1  1
  6  7  4  0
  7  8  4  0
  8  9  4  0
  9 10  4  0
  5 11  1  0
 12 13  1  0
 13 14  1  0
 14 15  4  0
 15 16  4  0
 17 18  1  0
 18 19  1  1
  6 20  4  0
 19 20  1  0
 20 21  4  0
 10 22  4  0
  6 22  4  0
 23 12  1  6
 23 24  1  0
 16 25  4  0
 25 26  4  0
 26 27  4  0
 14 27  4  0
 22 28  4  0
 21 28  4  0
 11 29  1  0
 18 29  1  0
  5 30  1  0
 23 30  1  0
 17 31  2  0
 17 32  1  0
 24 33  2  0
 24 34  1  0
 11 35  2  0
M  END
