8CGC_LMR_A_1001
     RDKit          3D

 15 14  0  0  0  0  0  0  0  0999 V2000
   34.5366   52.5041   -3.1781 C   0  0  0  0  0  0  0  0  0  0  0  0
   34.3173   51.2677   -3.0216 O   0  0  0  0  0  0  0  0  0  0  0  0
   34.5510   53.1119   -4.2526 O   0  0  0  0  0  0  0  0  0  0  0  0
   34.8394   53.3508   -1.9407 C   0  0  2  0  0  0  0  0  0  0  0  0
   36.0750   52.9668   -1.3766 O   0  0  0  0  0  0  0  0  0  0  0  0
   33.7299   53.2013   -0.8924 C   0  0  0  0  0  0  0  0  0  0  0  0
   32.7498   52.1056   -1.2813 C   0  0  0  0  0  0  0  0  0  0  0  0
   32.9660   51.4534   -2.3228 O   0  0  0  0  0  0  0  0  0  0  0  0
   31.7587   51.9261   -0.5552 O   0  0  0  0  0  0  0  0  0  0  0  0
   34.7238   54.0327   -4.2677 H   0  0  0  0  0  0  0  0  0  0  0  0
   34.8906   54.3753   -2.2450 H   0  0  0  0  0  0  0  0  0  0  0  0
   36.0295   52.0380   -1.1004 H   0  0  0  0  0  0  0  0  0  0  0  0
   34.1716   52.9558    0.0506 H   0  0  0  0  0  0  0  0  0  0  0  0
   33.1963   54.1268   -0.8297 H   0  0  0  0  0  0  0  0  0  0  0  0
   33.7306   51.6291   -2.8354 H   0  0  0  0  0  0  0  0  0  0  0  0
  1  2  2  0
  1  3  1  0
  1  4  1  0
  4  5  1  0
  4  6  1  0
  6  7  1  0
  7  8  1  0
  7  9  2  0
  3 10  1  0
  4 11  1  1
  5 12  1  0
  6 13  1  0
  6 14  1  0
  8 15  1  0
M  END
