8G43_ZU6_A_1304
     RDKit          3D

 36 37  0  0  0  0  0  0  0  0999 V2000
    5.3307    0.3883    5.6516 C   0  0  0  0  0  0  0  0  0  0  0  0
    5.3596    1.0544    6.8590 C   0  0  0  0  0  0  0  0  0  0  0  0
    4.2860    2.5996    8.4544 C   0  0  0  0  0  0  0  0  0  0  0  0
    1.7226    3.8283   11.8603 O   0  0  0  0  0  0  0  0  0  0  0  0
    2.3700    3.2816   10.9690 C   0  0  0  0  0  0  0  0  0  0  0  0
    2.5201    1.9636   10.9125 N   0  0  0  0  0  0  0  0  0  0  0  0
    2.1890    1.2012    9.7151 C   0  0  0  0  0  0  0  0  0  0  0  0
    3.0783    4.1292    9.9224 C   0  0  0  0  0  0  0  0  0  0  0  0
    3.1816    3.4345    8.6537 N   0  0  0  0  0  4  0  0  0  0  0  0
    5.0668    2.3797    9.3742 O   0  0  0  0  0  0  0  0  0  0  0  0
    4.3355    1.9546    7.1696 C   0  0  0  0  0  0  0  0  0  0  0  0
    4.3162    0.6140    4.7443 C   0  0  0  0  0  0  0  0  0  0  0  0
    3.2963    1.4897    5.0458 C   0  0  0  0  0  0  0  0  0  0  0  0
    3.2989    2.1724    6.2554 C   0  0  0  0  0  0  0  0  0  0  0  0
    2.2336    3.0265    6.5289 N   0  0  0  0  0  0  0  0  0  0  0  0
    2.1892    3.5956    7.6812 C   0  0  0  0  0  0  0  0  0  0  0  0
    1.0465    4.5063    7.9895 C   0  0  0  0  0  0  0  0  0  0  0  0
    0.9278    4.8888    9.4485 C   0  0  0  0  0  0  0  0  0  0  0  0
    2.0799    4.4323   10.3013 C   0  0  0  0  0  0  0  0  0  0  0  0
    3.2346    4.4671    9.8817 O   0  0  0  0  0  0  0  0  0  0  0  0
    1.7568    4.0666   11.4891 O   0  0  0  0  0  0  0  0  0  0  0  0
    6.0770   -0.2871    5.4241 H   0  0  0  0  0  0  0  0  0  0  0  0
    6.1292    0.8901    7.5265 H   0  0  0  0  0  0  0  0  0  0  0  0
    2.8651    1.4875   11.7021 H   0  0  0  0  0  0  0  0  0  0  0  0
    1.8309    1.8657    8.9567 H   0  0  0  0  0  0  0  0  0  0  0  0
    1.4302    0.4835    9.9478 H   0  0  0  0  0  0  0  0  0  0  0  0
    3.0628    0.6946    9.3618 H   0  0  0  0  0  0  0  0  0  0  0  0
    4.0624    4.3619   10.2721 H   0  0  0  0  0  0  0  0  0  0  0  0
    2.5060    5.0204    9.7704 H   0  0  0  0  0  0  0  0  0  0  0  0
    4.3213    0.1246    3.8357 H   0  0  0  0  0  0  0  0  0  0  0  0
    2.5290    1.6387    4.3719 H   0  0  0  0  0  0  0  0  0  0  0  0
    0.1407    4.0174    7.6970 H   0  0  0  0  0  0  0  0  0  0  0  0
    1.2244    5.4129    7.4498 H   0  0  0  0  0  0  0  0  0  0  0  0
    0.0302    4.4552    9.8372 H   0  0  0  0  0  0  0  0  0  0  0  0
    0.9219    5.9581    9.4865 H   0  0  0  0  0  0  0  0  0  0  0  0
    3.4055    4.7438    9.0029 H   0  0  0  0  0  0  0  0  0  0  0  0
  1  2  4  0
  4  5  2  0
  5  6  1  0
  6  7  1  0
  5  8  1  0
  3  9  4  0
  8  9  1  0
  3 10  2  0
  2 11  4  0
  3 11  4  0
  1 12  4  0
 12 13  4  0
 13 14  4  0
 11 14  4  0
 14 15  4  0
 15 16  4  0
  9 16  4  0
 16 17  1  0
 17 18  1  0
 18 19  1  0
 19 20  1  0
 19 21  2  0
  1 22  1  0
  2 23  1  0
  6 24  1  0
  7 25  1  0
  7 26  1  0
  7 27  1  0
  8 28  1  0
  8 29  1  0
 12 30  1  0
 13 31  1  0
 17 32  1  0
 17 33  1  0
 18 34  1  0
 18 35  1  0
 20 36  1  0
M  CHG  1   9   1
M  END
