7LT0_ONJ_A_301
     RDKit          3D

 27 30  0  0  0  0  0  0  0  0999 V2000
  -25.9637  -13.6335  -23.4226 C   0  0  0  0  0  0  0  0  0  0  0  0
  -24.9066  -13.8770  -22.5505 C   0  0  0  0  0  0  0  0  0  0  0  0
  -24.8095  -13.0982  -21.4007 C   0  0  0  0  0  0  0  0  0  0  0  0
  -25.7498  -12.1171  -21.1557 C   0  0  0  0  0  0  0  0  0  0  0  0
  -26.8086  -11.8708  -22.0261 C   0  0  0  0  0  0  0  0  0  0  0  0
  -26.8906  -12.6518  -23.1618 C   0  0  0  0  0  0  0  0  0  0  0  0
  -26.0434  -14.4572  -24.6132 C   0  0  0  0  0  0  0  0  0  0  0  0
  -25.1562  -14.2719  -25.6872 N   0  0  0  0  0  0  0  0  0  0  0  0
  -26.9117  -15.3669  -24.7237 O   0  0  0  0  0  0  0  0  0  0  0  0
  -24.0213  -13.3384  -25.6910 C   0  0  0  0  0  0  0  0  0  0  0  0
  -23.0023  -14.1492  -26.4072 C   0  0  0  0  0  0  0  0  0  0  0  0
  -23.6304  -15.1028  -27.2072 C   0  0  0  0  0  0  0  0  0  0  0  0
  -25.1072  -14.8979  -26.9976 C   0  0  0  0  0  0  0  0  0  0  0  0
  -21.6046  -14.1304  -26.4234 C   0  0  0  0  0  0  0  0  0  0  0  0
  -20.8790  -15.0218  -27.2015 C   0  0  0  0  0  0  0  0  0  0  0  0
  -21.5178  -15.9625  -27.9902 C   0  0  0  0  0  0  0  0  0  0  0  0
  -22.9093  -15.9931  -27.9843 C   0  0  0  0  0  0  0  0  0  0  0  0
  -28.0151  -10.6175  -21.7198 S   0  0  0  0  0  0  0  0  0  0  0  0
  -27.9036   -9.3938  -23.0115 C   0  0  0  0  0  0  0  0  0  0  0  0
  -25.6830  -11.3128  -20.0059 O   0  0  0  0  0  0  0  0  0  0  0  0
  -26.6645   -9.0248  -23.5047 C   0  0  0  0  0  0  0  0  0  0  0  0
  -26.6069   -8.0655  -24.5149 C   0  0  0  0  0  0  0  0  0  0  0  0
  -27.7551   -7.4892  -25.0202 C   0  0  0  0  0  0  0  0  0  0  0  0
  -28.9775   -7.8736  -24.5122 C   0  0  0  0  0  0  0  0  0  0  0  0
  -29.0623   -8.8226  -23.5106 C   0  0  0  0  0  0  0  0  0  0  0  0
  -27.7452   -6.4664  -26.0927 C   0  0  0  0  0  0  0  0  0  0  0  0
  -25.2819   -7.6559  -25.0579 C   0  0  0  0  0  0  0  0  0  0  0  0
  1  2  2  0
  2  3  1  0
  3  4  2  0
  4  5  1  0
  1  6  1  0
  5  6  2  0
  1  7  1  0
  7  8  1  0
  7  9  2  0
  8 10  1  0
 10 11  1  0
 11 12  2  0
  8 13  1  0
 12 13  1  0
 11 14  1  0
 14 15  2  0
 15 16  1  0
 16 17  2  0
 12 17  1  0
  5 18  1  0
 18 19  1  0
  4 20  1  0
 19 21  2  0
 21 22  1  0
 22 23  2  0
 23 24  1  0
 24 25  2  0
 19 25  1  0
 23 26  1  0
 22 27  1  0
M  END
$$$$
