7MMH_ZJY_A_1202
     RDKit          3D

 57 63  0  0  0  0  0  0  0  0999 V2000
  -16.2369   19.4518  -16.4174 C   0  0  0  0  0  0  0  0  0  0  0  0
  -19.9760   17.5262  -15.5423 C   0  0  0  0  0  0  0  0  0  0  0  0
  -12.3799   15.5095  -14.5960 C   0  0  0  0  0  0  0  0  0  0  0  0
  -11.6254   12.8511  -14.6398 C   0  0  0  0  0  0  0  0  0  0  0  0
  -12.9112   14.5594  -13.7494 C   0  0  0  0  0  0  0  0  0  0  0  0
   -9.6767   12.0573  -16.5083 C   0  0  0  0  0  0  0  0  0  0  0  0
  -14.0640   20.0015  -15.2090 C   0  0  1  0  0  0  0  0  0  0  0  0
  -12.8903   19.1225  -14.8999 C   0  0  0  0  0  0  0  0  0  0  0  0
  -13.3900   17.7236  -15.3113 C   0  0  2  0  0  0  0  0  0  0  0  0
  -14.8401   17.8612  -14.8820 C   0  0  0  0  0  0  0  0  0  0  0  0
  -13.6600   20.9086  -16.3026 C   0  0  0  0  0  0  0  0  0  0  0  0
  -12.3459   22.9858  -15.5844 C   0  0  2  0  0  0  0  0  0  0  0  0
  -17.0492   20.6799  -16.3396 C   0  0  2  0  0  0  0  0  0  0  0  0
  -19.0757   19.3174  -16.9919 C   0  0  0  0  0  0  0  0  0  0  0  0
  -17.4629   21.0805  -14.9486 C   0  0  0  0  0  0  0  0  0  0  0  0
  -16.7228   22.2672  -14.4225 C   0  0  0  0  0  0  0  0  0  0  0  0
  -11.0557   13.7476  -15.5120 C   0  0  0  0  0  0  0  0  0  0  0  0
  -10.0890   13.3795  -16.4466 C   0  0  0  0  0  0  0  0  0  0  0  0
  -10.2533   11.1804  -15.6341 C   0  0  0  0  0  0  0  0  0  0  0  0
  -11.2119   11.5468  -14.7081 C   0  0  0  0  0  0  0  0  0  0  0  0
   -8.4705   12.5069  -18.5949 C   0  0  0  0  0  0  0  0  0  0  0  0
  -13.9295   14.9712  -12.7706 C   0  0  0  0  0  0  0  0  0  0  0  0
  -11.8102   24.1607  -16.3684 C   0  0  0  0  0  0  0  0  0  0  0  0
   -8.2207   22.8374  -17.9373 C   0  0  2  0  0  0  0  0  0  0  0  0
   -6.7576   22.9162  -18.1147 C   0  0  0  0  0  0  0  0  0  0  0  0
   -7.2704   21.8730  -17.2050 C   0  0  0  0  0  0  0  0  0  0  0  0
   -9.0153   22.1530  -19.0361 C   0  0  0  0  0  0  0  0  0  0  0  0
  -12.9649   23.3162  -14.1983 C   0  0  2  0  0  0  0  0  0  0  0  0
  -13.1140   24.7635  -14.0827 C   0  0  0  0  0  0  0  0  0  0  0  0
  -14.2297   25.3711  -13.6668 C   0  0  0  0  0  0  0  0  0  0  0  0
  -15.4724   24.6739  -13.2634 C   0  0  0  0  0  0  0  0  0  0  0  0
  -16.4368   24.7082  -14.4258 C   0  0  0  0  0  0  0  0  0  0  0  0
  -11.6884   22.6061  -14.3479 C   0  0  0  0  0  0  0  0  0  0  0  0
  -17.4526   23.5619  -14.3781 C   0  0  0  0  0  0  0  0  0  0  0  0
  -20.1883   17.3325  -14.0380 C   0  0  2  0  0  0  0  0  0  0  0  0
  -21.4075   16.5798  -13.5846 C   0  0  0  0  0  0  0  0  0  0  0  0
  -21.2555   18.0806  -13.3537 C   0  0  0  0  0  0  0  0  0  0  0  0
  -18.9002   17.1108  -13.2985 C   0  0  2  0  0  0  0  0  0  0  0  0
  -17.9877   18.1266  -13.5190 F   0  0  0  0  0  0  0  0  0  0  0  0
  -18.3830   15.8928  -13.6834 F   0  0  0  0  0  0  0  0  0  0  0  0
  -19.2050   17.1017  -11.9474 F   0  0  0  0  0  0  0  0  0  0  0  0
  -15.1641   19.1036  -15.5795 N   0  0  0  0  0  0  0  0  0  0  0  0
  -13.3885   22.2629  -16.2644 N   0  0  0  0  0  0  0  0  0  0  0  0
  -18.2911   20.4870  -17.0813 N   0  0  0  0  0  0  0  0  0  0  0  0
  -11.4347   15.0264  -15.4737 N   0  0  0  0  0  0  0  0  0  0  0  0
  -12.5384   13.2611  -13.7754 N   0  0  0  0  0  0  0  0  0  0  0  0
  -10.7942   24.0707  -17.3310 N   0  0  0  0  0  0  0  0  0  0  0  0
  -13.5523   20.3296  -17.4575 O   0  0  0  0  0  0  0  0  0  0  0  0
  -16.5280   18.6036  -17.3398 O   0  0  0  0  0  0  0  0  0  0  0  0
  -19.3857   18.7889  -15.7379 O   0  0  0  0  0  0  0  0  0  0  0  0
  -19.5323   18.6962  -17.9829 O   0  0  0  0  0  0  0  0  0  0  0  0
  -12.6650   16.8064  -14.6644 O   0  0  0  0  0  0  0  0  0  0  0  0
   -8.7147   11.7211  -17.4467 O   0  0  0  0  0  0  0  0  0  0  0  0
  -12.3704   25.2681  -16.0789 O   0  0  0  0  0  0  0  0  0  0  0  0
   -8.5470   25.3653  -17.2001 O   0  0  0  0  0  0  0  0  0  0  0  0
   -8.8913   23.6931  -15.4851 O   0  0  0  0  0  0  0  0  0  0  0  0
   -9.1119   23.9800  -16.9487 S   0  0  2  0  0  6  0  0  0  0  0  0
  3  5  2  0
  8  7  1  1
  8  9  1  0
  9 10  1  0
  7 11  1  6
  1 13  1  0
 15 13  1  6
 16 15  1  1
  4 17  1  0
 17 18  1  0
  6 18  2  0
  6 19  1  0
  4 20  1  0
 19 20  2  0
 22  5  1  6
 12 23  1  6
 24 25  1  0
 26 24  1  1
 25 26  1  6
 24 27  1  6
 12 28  1  0
 28 29  1  1
 29 30  2  0
 31 30  1  6
 32 31  1  6
 33 28  1  6
 12 33  1  0
 34 32  1  6
 16 34  1  0
 35  2  1  6
 35 36  1  0
 36 37  1  6
 37 35  1  6
 35 38  1  0
 38 39  1  1
 38 40  1  0
 38 41  1  0
  1 42  1  0
  7 42  1  0
 10 42  1  1
 12 43  1  0
 11 43  1  0
 14 44  1  0
 13 44  1  6
  3 45  1  0
 17 45  2  0
  5 46  1  0
  4 46  2  0
 23 47  1  0
 11 48  2  0
  1 49  2  0
  2 50  1  1
 14 50  1  0
 14 51  2  0
  3 52  1  0
  9 52  1  1
  6 53  1  0
 21 53  1  1
 23 54  2  0
 55 57  2  0
 57 47  1  6
 56 57  2  0
 24 57  1  0
M  END
$$$$
