7ECR_SIN_B_505
     RDKit          3D

  8  7  0  0  0  0  0  0  0  0999 V2000
  -51.2214  -29.9037  -61.2765 C   0  0  0  0  0  0  0  0  0  0  0  0
  -52.3413  -29.3327  -61.1185 O   0  0  0  0  0  0  0  0  0  0  0  0
  -50.7802  -30.8515  -60.3451 O   0  0  0  0  0  0  0  0  0  0  0  0
  -50.4374  -29.5198  -62.4643 C   0  0  0  0  0  0  0  0  0  0  0  0
  -51.2583  -28.6824  -63.4474 C   0  0  0  0  0  0  0  0  0  0  0  0
  -51.9750  -29.6738  -64.2953 C   0  0  0  0  0  0  0  0  0  0  0  0
  -51.7331  -30.9147  -64.2316 O   0  0  0  0  0  0  0  0  0  0  0  0
  -52.9603  -29.2943  -65.2152 O   0  0  0  0  0  0  0  0  0  0  0  0
  1  2  2  0
  1  3  1  0
  1  4  1  0
  4  5  1  0
  5  6  1  0
  6  7  2  0
  6  8  1  0
M  END
$$$$
