8FLV_ZB9_A_701
     RDKit          3D

 29 32  0  0  0  0  0  0  0  0999 V2000
  -15.1782    5.8915  -18.5535 N   0  0  0  0  0  0  0  0  0  0  0  0
  -16.9460    6.7084  -14.9987 N   0  0  0  0  0  0  0  0  0  0  0  0
  -16.4738    6.3501  -16.2305 C   0  0  0  0  0  0  0  0  0  0  0  0
  -14.9494    7.7081  -15.2311 C   0  0  0  0  0  0  0  0  0  0  0  0
  -16.0175    7.5335  -14.4040 C   0  0  0  0  0  0  0  0  0  0  0  0
  -12.5787    6.5514  -19.0747 C   0  0  0  0  0  0  0  0  0  0  0  0
  -12.8194    8.4613  -17.5094 C   0  0  1  0  0  0  0  0  0  0  0  0
  -12.0731   10.8171  -17.9875 C   0  0  0  0  0  0  0  0  0  0  0  0
  -11.0035    9.7620  -14.9469 C   0  0  0  0  0  0  0  0  0  0  0  0
   -9.7152   10.9030  -12.1374 C   0  0  0  0  0  0  0  0  0  0  0  0
   -7.7657    9.6858  -11.5042 C   0  0  0  0  0  0  0  0  0  0  0  0
   -9.8212   11.3914  -10.8437 C   0  0  0  0  0  0  0  0  0  0  0  0
  -16.3657    5.3659  -18.2282 C   0  0  0  0  0  0  0  0  0  0  0  0
  -10.7660   10.4954  -17.2898 C   0  0  0  0  0  0  0  0  0  0  0  0
  -11.4824    8.2181  -16.7992 C   0  0  0  0  0  0  0  0  0  0  0  0
  -10.4543   11.1058  -14.5015 C   0  0  0  0  0  0  0  0  0  0  0  0
   -8.6733   10.0496  -12.4799 C   0  0  0  0  0  0  0  0  0  0  0  0
   -7.8427   10.1458  -10.2058 C   0  0  0  0  0  0  0  0  0  0  0  0
   -8.8881   10.9932   -9.9046 C   0  0  0  0  0  0  0  0  0  0  0  0
  -14.5654    6.7086  -17.6634 C   0  0  0  0  0  0  0  0  0  0  0  0
  -15.2134    6.9622  -16.4231 C   0  0  0  0  0  0  0  0  0  0  0  0
  -12.6800    9.5446  -18.5758 C   0  0  0  0  0  0  0  0  0  0  0  0
  -17.0762    5.5452  -17.1207 N   0  0  0  0  0  0  0  0  0  0  0  0
  -13.3642    7.2057  -18.0410 N   0  0  0  0  0  0  0  0  0  0  0  0
  -11.0224    9.4924  -16.2548 N   0  0  0  0  0  0  0  0  0  0  0  0
  -10.6245   11.2904  -13.0754 N   0  0  0  0  0  0  0  0  0  0  0  0
  -11.4685    8.9773  -14.1187 O   0  0  0  0  0  0  0  0  0  0  0  0
   -9.0268   11.5923   -8.2839 Cl  0  0  0  0  0  0  0  0  0  0  0  0
   -6.4706    8.6036  -11.9125 Cl  0  0  0  0  0  0  0  0  0  0  0  0
  2  3  1  0
  2  5  1  0
  4  5  2  0
 10 12  2  0
  1 13  2  0
  8 14  1  0
  7 15  1  0
  9 16  1  0
 10 17  1  0
 11 17  2  0
 11 18  1  0
 12 19  1  0
 18 19  2  0
  1 20  1  0
 20 21  2  0
  3 21  1  0
  4 21  1  0
  7 22  1  0
  8 22  1  0
 13 23  1  0
  3 23  2  0
  6 24  1  0
 20 24  1  0
  7 24  1  6
 15 25  1  0
 14 25  1  0
  9 25  1  0
 16 26  1  0
 10 26  1  0
  9 27  2  0
 19 28  1  0
 11 29  1  0
M  END
