7RSV_7IQ_B_901
     RDKit          3D

 40 43  0  0  0  0  0  0  0  0999 V2000
   -3.8615    0.3668   -2.7105 C   0  0  0  0  0  0  0  0  0  0  0  0
    1.5414   -0.0154    2.2132 C   0  0  2  0  0  0  0  0  0  0  0  0
   -2.3023    2.0530   -2.9278 C   0  0  0  0  0  0  0  0  0  0  0  0
   -0.3918   -1.4137    1.4969 C   0  0  0  0  0  0  0  0  0  0  0  0
   -1.2039    1.2829   -2.1900 C   0  0  0  0  0  0  0  0  0  0  0  0
   -1.0584   -0.2848   -0.2337 C   0  0  0  0  0  0  0  0  0  0  0  0
   -1.3735   -1.4037    0.5307 C   0  0  0  0  0  0  0  0  0  0  0  0
   -2.3905   -1.6924   -2.8493 C   0  0  0  0  0  0  0  0  0  0  0  0
    2.7976    0.3530    1.4307 C   0  0  0  0  0  0  0  0  0  0  0  0
    3.5478   -0.9545    1.2078 C   0  0  0  0  0  0  0  0  0  0  0  0
    3.0661   -1.9334    2.2791 C   0  0  0  0  0  0  0  0  0  0  0  0
    1.9951   -1.2045    3.0918 C   0  0  2  0  0  0  0  0  0  0  0  0
   -2.9114   -0.5705   -1.9431 C   0  0  1  0  0  0  0  0  0  0  0  0
   -0.2234   -2.3219    2.6192 C   0  0  0  0  0  0  0  0  0  0  0  0
    0.4476   -0.3884    1.3027 N   0  0  0  0  0  0  0  0  0  0  0  0
    0.0413    0.3240    0.2640 N   0  0  0  0  0  0  0  0  0  0  0  0
    0.9050   -2.1173    3.4717 N   0  0  0  0  0  0  0  0  0  0  0  0
   -1.7829    0.1966   -1.3866 N   0  0  0  0  0  0  0  0  0  0  0  0
   -1.0467   -3.2478    2.8462 O   0  0  0  0  0  0  0  0  0  0  0  0
   -3.1509    1.1696   -3.6319 O   0  0  0  0  0  0  0  0  0  0  0  0
   -4.4403    0.9957   -1.9951 H   0  0  0  0  0  0  0  0  0  0  0  0
   -4.6106   -0.2351   -3.2681 H   0  0  0  0  0  0  0  0  0  0  0  0
    1.2098    0.8352    2.8484 H   0  0  0  0  0  0  0  0  0  0  0  0
   -2.8787    2.6880   -2.2163 H   0  0  0  0  0  0  0  0  0  0  0  0
   -1.8248    2.7399   -3.6580 H   0  0  0  0  0  0  0  0  0  0  0  0
   -0.4918    0.8520   -2.9265 H   0  0  0  0  0  0  0  0  0  0  0  0
   -0.6521    2.0006   -1.5453 H   0  0  0  0  0  0  0  0  0  0  0  0
   -2.1913   -2.1018    0.4169 H   0  0  0  0  0  0  0  0  0  0  0  0
   -1.8262   -1.2722   -3.7088 H   0  0  0  0  0  0  0  0  0  0  0  0
   -1.7171   -2.3638   -2.2762 H   0  0  0  0  0  0  0  0  0  0  0  0
   -3.2376   -2.2982   -3.2354 H   0  0  0  0  0  0  0  0  0  0  0  0
    2.5754    0.8643    0.4695 H   0  0  0  0  0  0  0  0  0  0  0  0
    3.4242    1.0325    2.0502 H   0  0  0  0  0  0  0  0  0  0  0  0
    4.6457   -0.7935    1.2776 H   0  0  0  0  0  0  0  0  0  0  0  0
    3.3079   -1.3539    0.1976 H   0  0  0  0  0  0  0  0  0  0  0  0
    2.6457   -2.8406    1.7905 H   0  0  0  0  0  0  0  0  0  0  0  0
    3.9070   -2.2437    2.9372 H   0  0  0  0  0  0  0  0  0  0  0  0
    2.4622   -0.7983    4.0173 H   0  0  0  0  0  0  0  0  0  0  0  0
   -3.5056   -1.0254   -1.1221 H   0  0  0  0  0  0  0  0  0  0  0  0
    1.0409   -2.7479    4.2937 H   0  0  0  0  0  0  0  0  0  0  0  0
  3  5  1  0
  4  7  2  0
  6  7  1  0
  2  9  1  0
  9 10  1  0
 10 11  1  0
 12 11  1  0
  2 12  1  0
 13  8  1  0
  1 13  1  0
  4 14  1  0
  2 15  1  0
  4 15  1  0
 15 16  1  0
  6 16  2  0
 12 17  1  0
 14 17  1  0
  6 18  1  0
  5 18  1  0
 13 18  1  0
 14 19  2  0
  3 20  1  0
  1 20  1  0
  1 21  1  0
  1 22  1  0
  2 23  1  1
  3 24  1  0
  3 25  1  0
  5 26  1  0
  5 27  1  0
  7 28  1  0
  8 29  1  0
  8 30  1  0
  8 31  1  0
  9 32  1  0
  9 33  1  0
 10 34  1  0
 10 35  1  0
 11 36  1  0
 11 37  1  0
 12 38  1  1
 13 39  1  1
 17 40  1  0
M  END
