7BKA_4JC_D_201
     RDKit          3D

 12 12  0  0  0  0  0  0  0  0999 V2000
   16.2404   20.6057   18.2246 O   0  0  0  0  0  0  0  0  0  0  0  0
   16.7456   19.0297   18.2559 S   0  0  1  0  0  0  0  0  0  0  0  0
   15.8793   18.3948   19.2654 O   0  0  0  0  0  0  0  0  0  0  0  0
   16.6144   18.3225   17.0889 N   0  0  0  0  0  0  0  0  0  0  0  0
   18.4035   19.0147   18.7020 C   0  0  0  0  0  0  0  0  0  0  0  0
   18.7697   18.5812   19.9684 C   0  0  0  0  0  0  0  0  0  0  0  0
   20.1202   18.5408   20.3362 C   0  0  0  0  0  0  0  0  0  0  0  0
   19.3952   19.4410   17.8129 C   0  0  0  0  0  0  0  0  0  0  0  0
   20.7239   19.3960   18.1779 C   0  0  0  0  0  0  0  0  0  0  0  0
   21.1001   18.9555   19.4245 C   0  0  0  0  0  0  0  0  0  0  0  0
   22.5832   18.9606   19.7708 C   0  0  0  0  0  0  0  0  0  0  0  0
   23.1265   20.4096   19.7487 C   0  0  0  0  0  0  0  0  0  0  0  0
  1  2  2  0
  2  3  2  0
  2  4  1  6
  2  5  1  0
  5  6  2  0
  6  7  1  0
  5  8  1  0
  8  9  2  0
  7 10  2  0
  9 10  1  0
 10 11  1  0
 11 12  1  0
M  END
