7ZHP_IQY_A_408
     RDKit          3D

 51 54  0  0  0  0  0  0  0  0999 V2000
   -0.0700   -0.2362   -2.9980 N   0  0  0  0  0  0  0  0  0  0  0  0
   -2.6964    0.0565    3.5366 C   0  0  0  0  0  0  0  0  0  0  0  0
   -0.4538   -1.5946   -4.8725 N   0  0  0  0  0  0  0  0  0  0  0  0
   -0.5557    0.6109    2.0152 C   0  0  0  0  0  0  0  0  0  0  0  0
    0.5923    0.9123    1.2030 C   0  0  0  0  0  0  0  0  0  0  0  0
    1.6585    1.6641    1.7442 C   0  0  0  0  0  0  0  0  0  0  0  0
   -3.1983   -1.2064    3.1650 O   0  0  0  0  0  0  0  0  0  0  0  0
   -3.7777    1.1472    3.2955 C   0  0  0  0  0  0  0  0  0  0  0  0
   -5.0676    0.9168    4.0865 C   0  0  0  0  0  0  0  0  0  0  0  0
   -2.2477   -0.0355    5.0189 C   0  0  0  0  0  0  0  0  0  0  0  0
   -1.7195    1.2756    5.6133 C   0  0  0  0  0  0  0  0  0  0  0  0
   -1.5175    0.3604    2.6974 C   0  0  0  0  0  0  0  0  0  0  0  0
    0.6516    0.4498   -0.1264 C   0  0  0  0  0  0  0  0  0  0  0  0
    1.7835    0.7666   -0.8895 C   0  0  0  0  0  0  0  0  0  0  0  0
    2.8180    1.4844   -0.3481 C   0  0  0  0  0  0  0  0  0  0  0  0
    2.7902    1.9520    0.9647 C   0  0  0  0  0  0  0  0  0  0  0  0
    2.1399    0.4461   -2.1994 C   0  0  0  0  0  0  0  0  0  0  0  0
    1.2787   -0.2819   -3.1751 C   0  0  0  0  0  0  0  0  0  0  0  0
    1.7900   -1.0154   -4.2677 C   0  0  0  0  0  0  0  0  0  0  0  0
    0.8789   -1.6740   -5.1085 C   0  0  0  0  0  0  0  0  0  0  0  0
   -0.9316   -0.8790   -3.8255 C   0  0  0  0  0  0  0  0  0  0  0  0
   -2.3358   -0.8039   -3.5919 N   0  0  0  0  0  0  0  0  0  0  0  0
    3.2577   -1.0756   -4.5771 C   0  0  0  0  0  0  0  0  0  0  0  0
    3.7957    0.3349   -4.8248 C   0  0  0  0  0  0  0  0  0  0  0  0
    4.3584    0.9583   -3.5511 C   0  0  0  0  0  0  0  0  0  0  0  0
    3.4244    1.0118   -2.3676 C   0  0  0  0  0  0  0  0  0  0  0  0
    3.8126    1.6358   -1.2312 N   0  0  0  0  0  0  0  0  0  0  0  0
    1.6146    2.0173    2.7674 H   0  0  0  0  0  0  0  0  0  0  0  0
   -3.4745   -1.1647    2.2108 H   0  0  0  0  0  0  0  0  0  0  0  0
   -4.0411    1.1662    2.2144 H   0  0  0  0  0  0  0  0  0  0  0  0
   -3.3792    2.1558    3.5382 H   0  0  0  0  0  0  0  0  0  0  0  0
   -5.8285    1.6627    3.7741 H   0  0  0  0  0  0  0  0  0  0  0  0
   -4.8913    1.0438    5.1744 H   0  0  0  0  0  0  0  0  0  0  0  0
   -5.4723   -0.0986    3.8919 H   0  0  0  0  0  0  0  0  0  0  0  0
   -1.4457   -0.8025    5.1053 H   0  0  0  0  0  0  0  0  0  0  0  0
   -3.0901   -0.3970    5.6467 H   0  0  0  0  0  0  0  0  0  0  0  0
   -2.5344    2.0220    5.7098 H   0  0  0  0  0  0  0  0  0  0  0  0
   -1.3160    1.0803    6.6291 H   0  0  0  0  0  0  0  0  0  0  0  0
   -0.9024    1.6953    4.9900 H   0  0  0  0  0  0  0  0  0  0  0  0
   -0.1547   -0.1488   -0.5260 H   0  0  0  0  0  0  0  0  0  0  0  0
    3.6175    2.5173    1.3742 H   0  0  0  0  0  0  0  0  0  0  0  0
    1.2258   -2.2463   -5.9592 H   0  0  0  0  0  0  0  0  0  0  0  0
   -3.0044   -1.2960   -4.2252 H   0  0  0  0  0  0  0  0  0  0  0  0
   -2.7081   -0.2579   -2.7835 H   0  0  0  0  0  0  0  0  0  0  0  0
    3.4374   -1.6866   -5.4891 H   0  0  0  0  0  0  0  0  0  0  0  0
    3.7971   -1.5800   -3.7456 H   0  0  0  0  0  0  0  0  0  0  0  0
    4.6214    0.2771   -5.5675 H   0  0  0  0  0  0  0  0  0  0  0  0
    3.0159    0.9983   -5.2625 H   0  0  0  0  0  0  0  0  0  0  0  0
    4.6839    1.9945   -3.7859 H   0  0  0  0  0  0  0  0  0  0  0  0
    5.2663    0.3930   -3.2477 H   0  0  0  0  0  0  0  0  0  0  0  0
    4.7195    2.1283   -1.0678 H   0  0  0  0  0  0  0  0  0  0  0  0
  4  5  1  0
  5  6  2  0
  2  7  1  0
  2  8  1  0
  8  9  1  0
  2 10  1  0
 10 11  1  0
  4 12  3  0
  2 12  1  0
  5 13  1  0
 13 14  2  0
 14 15  1  0
 15 16  2  0
  6 16  1  0
 14 17  1  0
 17 18  1  0
  1 18  2  0
 18 19  1  0
 19 20  2  0
  3 20  1  0
  3 21  2  0
  1 21  1  0
 21 22  1  0
 19 23  1  0
 23 24  1  0
 24 25  1  0
 25 26  1  0
 17 26  2  0
 26 27  1  0
 15 27  1  0
  6 28  1  0
  7 29  1  0
  8 30  1  0
  8 31  1  0
  9 32  1  0
  9 33  1  0
  9 34  1  0
 10 35  1  0
 10 36  1  0
 11 37  1  0
 11 38  1  0
 11 39  1  0
 13 40  1  0
 16 41  1  0
 20 42  1  0
 22 43  1  0
 22 44  1  0
 23 45  1  0
 23 46  1  0
 24 47  1  0
 24 48  1  0
 25 49  1  0
 25 50  1  0
 27 51  1  0
M  END
