7RPZ_6IC_A_202
     RDKit          3D

 44 51  0  0  0  0  0  0  0  0999 V2000
   -2.4922   -0.8467  -23.4966 C   0  0  0  0  0  0  0  0  0  0  0  0
   -3.7705   -0.8786  -22.9911 C   0  0  0  0  0  0  0  0  0  0  0  0
   -1.9846   -1.9938  -24.0457 C   0  0  0  0  0  0  0  0  0  0  0  0
   -3.9527   -3.2199  -23.6164 C   0  0  0  0  0  0  0  0  0  0  0  0
   -2.6978   -3.1888  -24.1169 C   0  0  0  0  0  0  0  0  0  0  0  0
   -4.4843   -2.0577  -23.0559 C   0  0  0  0  0  0  0  0  0  0  0  0
   -6.5233   -3.1644  -22.6312 C   0  0  0  0  0  0  0  0  0  0  0  0
   -2.4954  -11.6583  -27.8615 C   0  0  0  0  0  0  0  0  0  0  0  0
   -1.1877  -10.9727  -25.8197 C   0  0  0  0  0  0  0  0  0  0  0  0
   -5.7759   -2.0130  -22.5565 C   0  0  0  0  0  0  0  0  0  0  0  0
   -3.4511   -8.2169  -24.7395 C   0  0  0  0  0  0  0  0  0  0  0  0
   -4.5007   -8.0251  -23.8741 C   0  0  0  0  0  0  0  0  0  0  0  0
   -4.8370  -10.3091  -23.6186 C   0  0  0  0  0  0  0  0  0  0  0  0
   -3.0998   -9.5031  -25.0390 C   0  0  0  0  0  0  0  0  0  0  0  0
   -2.8315   -7.1029  -25.2472 C   0  0  0  0  0  0  0  0  0  0  0  0
   -4.2365   -5.6736  -24.0845 C   0  0  0  0  0  0  0  0  0  0  0  0
   -4.9026   -6.7503  -23.5386 C   0  0  0  0  0  0  0  0  0  0  0  0
   -4.6789   -4.3490  -23.6851 C   0  0  0  0  0  0  0  0  0  0  0  0
   -5.7695  -12.6524  -23.5913 C   0  0  0  0  0  0  0  0  0  0  0  0
   -1.6579   -8.8611  -27.0000 C   0  0  0  0  0  0  0  0  0  0  0  0
   -1.3204   -9.6195  -28.2553 C   0  0  2  0  0  0  0  0  0  0  0  0
   -1.1466  -11.6152  -27.2176 C   0  0  2  0  0  0  0  0  0  0  0  0
   -2.4917  -10.4315  -28.7681 C   0  0  0  0  0  0  0  0  0  0  0  0
   -5.9883   -4.3042  -23.1812 C   0  0  0  0  0  0  0  0  0  0  0  0
   -7.0934  -12.9235  -24.1974 C   0  0  1  0  0  0  0  0  0  0  0  0
   -7.4815  -14.3420  -24.3849 C   0  0  0  0  0  0  0  0  0  0  0  0
   -6.4143  -14.8015  -25.3801 C   0  0  2  0  0  0  0  0  0  0  0  0
   -6.3915  -13.5916  -26.3205 C   0  0  0  0  0  0  0  0  0  0  0  0
   -8.3543  -12.2100  -25.9883 C   0  0  0  0  0  0  0  0  0  0  0  0
   -9.0328  -11.6701  -24.7307 C   0  0  0  0  0  0  0  0  0  0  0  0
   -8.2033  -12.1075  -23.5705 C   0  0  0  0  0  0  0  0  0  0  0  0
   -2.0482   -4.2589  -24.8099 C   0  0  0  0  0  0  0  0  0  0  0  0
   -1.4923   -5.1658  -25.3746 C   0  0  0  0  0  0  0  0  0  0  0  0
   -5.9395   -6.5466  -22.6822 F   0  0  0  0  0  0  0  0  0  0  0  0
   -6.8597  -15.9174  -26.0224 F   0  0  0  0  0  0  0  0  0  0  0  0
   -0.7004   -1.9053  -24.5333 F   0  0  0  0  0  0  0  0  0  0  0  0
   -5.1568   -9.0456  -23.3436 N   0  0  0  0  0  0  0  0  0  0  0  0
   -3.7884  -10.5078  -24.4822 N   0  0  0  0  0  0  0  0  0  0  0  0
   -3.1857   -5.8397  -24.9525 N   0  0  0  0  0  0  0  0  0  0  0  0
   -2.0213   -9.7739  -25.9142 N   0  0  0  0  0  0  0  0  0  0  0  0
   -0.3499  -10.6680  -28.0129 N   0  0  0  0  0  0  0  0  0  0  0  0
   -7.0069  -12.4920  -25.6050 N   0  0  0  0  0  0  0  0  0  0  0  0
   -5.4377  -11.4226  -23.1385 O   0  0  0  0  0  0  0  0  0  0  0  0
   -7.8193   -3.1582  -22.1446 O   0  0  0  0  0  0  0  0  0  0  0  0
  1  2  2  0
  1  3  1  0
  4  5  1  0
  3  5  2  0
  4  6  2  0
  2  6  1  0
  7 10  2  0
  6 10  1  0
 11 12  1  0
 11 14  1  0
 11 15  2  0
 16 17  1  0
 12 17  2  0
 16 18  1  0
  4 18  1  0
 21 20  1  0
 22  9  1  0
  8 22  1  6
 21 23  1  0
 23  8  1  1
  7 24  1  0
 18 24  2  0
 25 19  1  0
 25 26  1  0
 26 27  1  6
 27 28  1  0
 30 29  1  1
 31 30  1  1
 25 31  1  0
  5 32  1  0
 32 33  3  0
 17 34  1  0
 27 35  1  6
  3 36  1  0
 12 37  1  0
 13 37  2  0
 14 38  2  0
 13 38  1  0
 15 39  1  0
 16 39  2  0
  9 40  1  6
 14 40  1  0
 20 40  1  6
 22 41  1  6
 21 41  1  1
 29 42  1  1
 28 42  1  1
 25 42  1  6
 13 43  1  0
 19 43  1  6
  7 44  1  0
M  END
$$$$
