8D19_GSH_B_501
     RDKit          3D

 37 36  0  0  0  0  0  0  0  0999 V2000
   36.4178   18.9336   40.2875 N   0  0  0  0  0  0  0  0  0  0  0  0
   37.7406   18.4189   39.9234 C   0  0  2  0  0  0  0  0  0  0  0  0
   38.5185   18.0945   41.1688 C   0  0  0  0  0  0  0  0  0  0  0  0
   38.3011   18.7270   42.2375 O   0  0  0  0  0  0  0  0  0  0  0  0
   39.4990   17.1077   41.1349 O   0  0  0  0  0  0  0  0  0  0  0  0
   38.5241   19.4559   39.0878 C   0  0  2  0  0  0  0  0  0  0  0  0
   39.2992   20.4845   39.9272 C   0  0  1  0  0  0  0  0  0  0  0  0
   38.4994   20.9615   41.1044 C   0  0  0  0  0  0  0  0  0  0  0  0
   37.5212   21.7347   40.9152 O   0  0  0  0  0  0  0  0  0  0  0  0
   38.8202   20.5101   42.4284 N   0  0  0  0  0  0  0  0  0  0  0  0
   39.2047   19.1228   42.7048 C   0  0  2  0  0  0  0  0  0  0  0  0
   40.5670   18.8474   42.1233 C   0  0  0  0  0  0  0  0  0  0  0  0
   40.8879   19.3614   41.0167 O   0  0  0  0  0  0  0  0  0  0  0  0
   38.1637   18.1551   42.1219 C   0  0  1  0  0  0  0  0  0  0  0  0
   38.8145   16.4541   42.0475 S   0  0  0  0  0  0  0  0  0  0  0  0
   41.4808   17.9768   42.8061 N   0  0  0  0  0  0  0  0  0  0  0  0
   42.7115   18.4639   43.4222 C   0  0  1  0  0  0  0  0  0  0  0  0
   43.8991   17.8427   42.7590 C   0  0  0  0  0  0  0  0  0  0  0  0
   44.9910   17.7426   43.3802 O   0  0  0  0  0  0  0  0  0  0  0  0
   43.8014   17.3919   41.4465 O   0  0  0  0  0  0  0  0  0  0  0  0
   35.6917   18.2789   39.9190 H   0  0  0  0  0  0  0  0  0  0  0  0
   36.3199   18.8912   41.3287 H   0  0  0  0  0  0  0  0  0  0  0  0
   37.6224   17.4783   39.3402 H   0  0  0  0  0  0  0  0  0  0  0  0
   39.6037   16.4525   41.9006 H   0  0  0  0  0  0  0  0  0  0  0  0
   37.8196   20.0061   38.4239 H   0  0  0  0  0  0  0  0  0  0  0  0
   39.2459   18.9233   38.4300 H   0  0  0  0  0  0  0  0  0  0  0  0
   40.2726   20.0689   40.2607 H   0  0  0  0  0  0  0  0  0  0  0  0
   39.5336   21.3594   39.2833 H   0  0  0  0  0  0  0  0  0  0  0  0
   38.7883   21.2014   43.2121 H   0  0  0  0  0  0  0  0  0  0  0  0
   39.2243   18.9760   43.8075 H   0  0  0  0  0  0  0  0  0  0  0  0
   37.2602   18.1518   42.7691 H   0  0  0  0  0  0  0  0  0  0  0  0
   37.8615   18.4769   41.1017 H   0  0  0  0  0  0  0  0  0  0  0  0
   40.0005   16.8101   42.7175 H   0  0  0  0  0  0  0  0  0  0  0  0
   41.2684   16.9553   42.8619 H   0  0  0  0  0  0  0  0  0  0  0  0
   42.7548   19.5729   43.3557 H   0  0  0  0  0  0  0  0  0  0  0  0
   42.7216   18.1858   44.4977 H   0  0  0  0  0  0  0  0  0  0  0  0
   42.8984   17.2871   40.9995 H   0  0  0  0  0  0  0  0  0  0  0  0
  2  1  1  0
  2  3  1  0
  3  4  2  0
  3  5  1  0
  2  6  1  0
  6  7  1  0
  7  8  1  0
  8  9  2  0
  8 10  1  0
 10 11  1  0
 11 12  1  0
 12 13  2  0
 11 14  1  0
 14 15  1  0
 12 16  1  0
 16 17  1  0
 17 18  1  0
 18 19  2  0
 18 20  1  0
  1 21  1  0
  1 22  1  0
  2 23  1  6
  5 24  1  0
  6 25  1  6
  6 26  1  0
  7 27  1  1
  7 28  1  0
 10 29  1  0
 11 30  1  1
 14 31  1  1
 14 32  1  0
 15 33  1  0
 16 34  1  0
 17 35  1  1
 17 36  1  0
 20 37  1  0
M  END
