7M41_YQG_A_201
     RDKit          3D

 32 36  0  0  0  0  0  0  0  0999 V2000
  -11.2916  -18.6640    4.3337 N   0  0  0  0  0  0  0  0  0  0  0  0
  -10.5561  -16.9286    1.1970 N   0  0  0  0  0  0  0  0  0  0  0  0
  -13.2373  -19.9561    4.8811 C   0  0  0  0  0  0  0  0  0  0  0  0
  -12.4923  -19.1749    3.9985 C   0  0  0  0  0  0  0  0  0  0  0  0
  -12.9587  -18.8905    2.7335 C   0  0  0  0  0  0  0  0  0  0  0  0
  -10.5838  -17.9105    3.4686 C   0  0  0  0  0  0  0  0  0  0  0  0
  -12.2208  -18.1171    1.8603 C   0  0  0  0  0  0  0  0  0  0  0  0
  -11.3098  -16.3280   -1.1781 C   0  0  0  0  0  0  0  0  0  0  0  0
  -18.5233  -20.1267    2.2287 C   0  0  0  0  0  0  0  0  0  0  0  0
  -17.7070  -22.4054    2.0572 C   0  0  0  0  0  0  0  0  0  0  0  0
  -17.0283  -18.3054    2.9183 C   0  0  0  0  0  0  0  0  0  0  0  0
  -22.7274  -19.9755    4.9417 C   0  0  0  0  0  0  0  0  0  0  0  0
  -14.1743  -19.3610    2.2845 C   0  0  0  0  0  0  0  0  0  0  0  0
  -16.2248  -20.6666    2.7296 C   0  0  0  0  0  0  0  0  0  0  0  0
  -17.2594  -19.7619    2.6150 C   0  0  0  0  0  0  0  0  0  0  0  0
  -18.7323  -21.4672    1.9505 C   0  0  0  0  0  0  0  0  0  0  0  0
  -16.4447  -21.9994    2.4499 C   0  0  0  0  0  0  0  0  0  0  0  0
  -21.7028  -20.0986    2.9767 C   0  0  0  0  0  0  0  0  0  0  0  0
  -21.8367  -18.9210    4.8362 C   0  0  0  0  0  0  0  0  0  0  0  0
  -14.9310  -20.1414    3.1504 C   0  0  0  0  0  0  0  0  0  0  0  0
  -14.4642  -20.4326    4.4317 C   0  0  0  0  0  0  0  0  0  0  0  0
  -11.4163  -16.9572    0.1639 C   0  0  0  0  0  0  0  0  0  0  0  0
  -11.0237  -17.6206    2.2249 N   0  0  0  0  0  0  0  0  0  0  0  0
  -12.4538  -17.7002    0.5829 N   0  0  0  0  0  0  0  0  0  0  0  0
  -20.0503  -21.8808    1.5422 N   0  0  0  0  0  0  0  0  0  0  0  0
  -21.2297  -19.0204    3.6356 N   0  0  0  0  0  0  0  0  0  0  0  0
  -22.6116  -20.6640    3.7887 N   0  0  0  0  0  0  0  0  0  0  0  0
   -9.4695  -17.4667    3.8509 O   0  0  0  0  0  0  0  0  0  0  0  0
  -22.5086  -21.4368    0.8614 O   0  0  0  0  0  0  0  0  0  0  0  0
  -20.9636  -19.6182    0.4136 O   0  0  0  0  0  0  0  0  0  0  0  0
  -21.2870  -20.7112    1.4027 S   0  0  1  0  0  0  0  0  0  0  0  0
  -15.4239  -21.4185    5.5207 Cl  0  0  0  0  0  0  0  0  0  0  0  0
  1  4  1  0
  3  4  2  0
  4  5  1  0
  1  6  1  0
  5  7  1  0
  5 13  2  0
  9 15  2  0
 11 15  1  0
 14 15  1  0
  9 16  1  0
 10 16  2  0
 10 17  1  0
 14 17  2  0
 12 19  2  0
 13 20  1  0
 14 20  1  0
 20 21  2  0
  3 21  1  0
  8 22  1  0
  2 22  2  0
  2 23  1  0
  7 23  1  0
  6 23  1  0
 22 24  1  0
  7 24  2  0
 16 25  1  0
 19 26  1  0
 18 26  1  0
 12 27  1  0
 18 27  2  0
  6 28  2  0
 18 31  1  0
 30 31  2  0
 29 31  2  0
 31 25  1  1
 21 32  1  0
M  END
$$$$
