7RWS_4UR_A_401
     RDKit          3D

 69 75  0  0  0  0  0  0  0  0999 V2000
   15.3624   51.7943   46.1417 C   0  0  1  0  0  0  0  0  0  0  0  0
   16.5640   52.4773   45.4465 C   0  0  0  0  0  0  0  0  0  0  0  0
   15.1143   52.4707   41.1700 C   0  0  2  0  0  0  0  0  0  0  0  0
   11.9449   58.7817   37.2894 N   0  0  0  0  0  0  0  0  0  0  0  0
   12.2475   57.3755   37.0060 C   0  0  0  0  0  0  0  0  0  0  0  0
   12.8713   56.5794   38.0224 N   0  0  0  0  0  0  0  0  0  0  0  0
   13.1877   55.1579   37.7327 C   0  0  0  0  0  0  0  0  0  0  0  0
   12.9135   54.5488   36.5428 C   0  0  0  0  0  0  0  0  0  0  0  0
   13.3238   53.2787   36.6483 N   0  0  0  0  0  0  0  0  0  0  0  0
   13.8446   53.1218   37.8975 C   0  0  0  0  0  0  0  0  0  0  0  0
   13.7493   54.3204   38.5376 N   0  0  0  0  0  4  0  0  0  0  0  0
   14.2449   54.2788   39.8571 C   0  0  1  0  0  0  0  0  0  0  0  0
   13.1782   53.7640   40.6827 O   0  0  0  0  0  0  0  0  0  0  0  0
   13.6869   52.6798   41.4818 C   0  0  1  0  0  0  0  0  0  0  0  0
   12.7788   51.4413   41.2152 C   0  0  0  0  0  0  0  0  0  0  0  0
   13.4847   50.2357   41.5677 O   0  0  0  0  0  0  0  0  0  0  0  0
   12.6464   49.3169   42.7395 P   0  0  2  0  0  5  0  0  0  0  0  0
   13.4515   48.0536   42.8524 O   0  0  0  0  0  0  0  0  0  0  0  0
   11.1688   49.0412   42.5503 O   0  0  0  0  0  0  0  0  0  0  0  0
   12.8378   50.2259   44.1874 O   0  0  0  0  0  0  0  0  0  0  0  0
   14.2007   50.5262   44.5639 C   0  0  1  0  0  0  0  0  0  0  0  0
   14.1679   51.8378   45.2349 C   0  0  1  0  0  0  0  0  0  0  0  0
   13.0160   51.9750   46.0731 O   0  0  0  0  0  0  0  0  0  0  0  0
   16.8320   51.7698   44.1454 O   0  0  0  0  0  0  0  0  0  0  0  0
   17.2736   52.6446   42.7971 P   0  0  1  0  0  5  0  0  0  0  0  0
   18.0287   53.8865   43.2499 O   0  0  0  0  0  0  0  0  0  0  0  0
   18.0438   51.8321   41.7766 O   0  0  0  0  0  0  0  0  0  0  0  0
   15.8063   53.2509   42.2049 O   0  0  0  0  0  0  0  0  0  0  0  0
   15.2614   53.1204   39.8575 C   0  0  1  0  0  0  0  0  0  0  0  0
   16.5774   53.5646   39.5909 O   0  0  0  0  0  0  0  0  0  0  0  0
   15.6171   50.4407   46.3669 O   0  0  0  0  0  0  0  0  0  0  0  0
   14.6779   49.5954   45.6475 C   0  0  2  0  0  0  0  0  0  0  0  0
   15.4617   48.4815   45.1896 N   0  0  0  0  0  4  0  0  0  0  0  0
   15.0948   47.2466   44.7927 C   0  0  0  0  0  0  0  0  0  0  0  0
   16.2006   46.5887   44.4130 N   0  0  0  0  0  0  0  0  0  0  0  0
   17.2450   47.4254   44.5635 C   0  0  0  0  0  0  0  0  0  0  0  0
   18.5765   47.2361   44.3150 C   0  0  0  0  0  0  0  0  0  0  0  0
   19.3683   46.1273   43.8263 N   0  0  0  0  0  0  0  0  0  0  0  0
   19.4555   48.2156   44.5318 N   0  0  0  0  0  0  0  0  0  0  0  0
   19.0154   49.4135   45.0117 C   0  0  0  0  0  0  0  0  0  0  0  0
   17.6839   49.5988   45.2580 N   0  0  0  0  0  0  0  0  0  0  0  0
   16.8025   48.6013   45.0346 C   0  0  0  0  0  0  0  0  0  0  0  0
   12.2386   55.4011   35.4574 C   0  0  0  0  0  0  0  0  0  0  0  0
   11.9589   54.9578   34.3867 O   0  0  0  0  0  0  0  0  0  0  0  0
   11.9330   56.7683   35.7322 N   0  0  0  0  0  4  0  0  0  0  0  0
   15.1939   52.3105   47.0637 H   0  0  0  0  0  0  0  0  0  0  0  0
   16.3345   53.5050   45.2573 H   0  0  0  0  0  0  0  0  0  0  0  0
   17.4280   52.4251   46.0755 H   0  0  0  0  0  0  0  0  0  0  0  0
   15.4727   51.4628   41.1483 H   0  0  0  0  0  0  0  0  0  0  0  0
   12.1712   59.1667   38.1668 H   0  0  0  0  0  0  0  0  0  0  0  0
   11.5154   59.3410   36.6023 H   0  0  0  0  0  0  0  0  0  0  0  0
   14.2398   52.2522   38.2881 H   0  0  0  0  0  0  0  0  0  0  0  0
   14.6235   55.2272   40.1769 H   0  0  0  0  0  0  0  0  0  0  0  0
   13.6520   52.8848   42.5314 H   0  0  0  0  0  0  0  0  0  0  0  0
   11.8899   51.5185   41.8058 H   0  0  0  0  0  0  0  0  0  0  0  0
   12.5195   51.4092   40.1775 H   0  0  0  0  0  0  0  0  0  0  0  0
   11.0371   48.5283   41.7375 H   0  0  0  0  0  0  0  0  0  0  0  0
   14.8186   50.4649   43.6925 H   0  0  0  0  0  0  0  0  0  0  0  0
   14.1548   52.6360   44.5225 H   0  0  0  0  0  0  0  0  0  0  0  0
   13.0063   51.2603   46.7289 H   0  0  0  0  0  0  0  0  0  0  0  0
   18.8699   51.5141   42.1733 H   0  0  0  0  0  0  0  0  0  0  0  0
   15.0700   52.4213   39.0704 H   0  0  0  0  0  0  0  0  0  0  0  0
   16.8426   54.2117   40.2631 H   0  0  0  0  0  0  0  0  0  0  0  0
   13.8376   49.1878   46.1697 H   0  0  0  0  0  0  0  0  0  0  0  0
   14.1328   46.8730   44.7827 H   0  0  0  0  0  0  0  0  0  0  0  0
   18.9322   45.2760   43.5932 H   0  0  0  0  0  0  0  0  0  0  0  0
   20.3429   46.2244   43.7270 H   0  0  0  0  0  0  0  0  0  0  0  0
   19.6857   50.1781   45.1885 H   0  0  0  0  0  0  0  0  0  0  0  0
   11.4969   57.3116   35.0365 H   0  0  0  0  0  0  0  0  0  0  0  0
  1  2  1  0
  4  5  1  0
  5  6  4  0
  6  7  4  0
  7  8  4  0
  8  9  4  0
  9 10  4  0
  7 11  4  0
 10 11  4  0
 12 11  1  0
 12 13  1  0
  3 14  1  0
 13 14  1  0
 14 15  1  0
 15 16  1  0
 16 17  1  0
 17 18  2  0
 17 19  1  1
 17 20  1  0
 21 20  1  0
  1 22  1  0
 21 22  1  0
 22 23  1  0
  2 24  1  0
 24 25  1  0
 25 26  2  0
 25 27  1  1
 25 28  1  0
  3 28  1  0
  3 29  1  0
 12 29  1  0
 29 30  1  0
  1 31  1  0
 31 32  1  0
 21 32  1  0
 32 33  1  0
 33 34  4  0
 34 35  4  0
 35 36  4  0
 36 37  4  0
 37 38  1  0
 37 39  4  0
 39 40  4  0
 40 41  4  0
 36 42  4  0
 33 42  4  0
 41 42  4  0
  8 43  4  0
 43 44  2  0
  5 45  4  0
 43 45  4  0
  1 46  1  6
  2 47  1  0
  2 48  1  0
  3 49  1  1
  4 50  1  0
  4 51  1  0
 10 52  1  0
 12 53  1  6
 14 54  1  6
 15 55  1  0
 15 56  1  0
 19 57  1  0
 21 58  1  1
 22 59  1  1
 23 60  1  0
 27 61  1  0
 29 62  1  1
 30 63  1  0
 32 64  1  6
 34 65  1  0
 38 66  1  0
 38 67  1  0
 40 68  1  0
 45 69  1  0
M  CHG  3  11   1  33   1  45   1
M  END
