7OKC_VFE_A_1001
     RDKit          3D

 29 31  0  0  0  0  0  0  0  0999 V2000
   32.7266    2.0580   -5.3343 C   0  0  0  0  0  0  0  0  0  0  0  0
   33.3803    1.1952   -4.4752 C   0  0  0  0  0  0  0  0  0  0  0  0
   30.1494    7.1158   -6.5819 C   0  0  0  0  0  0  0  0  0  0  0  0
   31.9644    5.8085   -5.7785 C   0  0  0  0  0  0  0  0  0  0  0  0
   29.4454    6.8575   -5.4152 C   0  0  0  0  0  0  0  0  0  0  0  0
   31.2751    5.5437   -4.6136 C   0  0  0  0  0  0  0  0  0  0  0  0
   33.3722    2.6107   -6.4198 C   0  0  0  0  0  0  0  0  0  0  0  0
   34.7109    0.8843   -4.7162 C   0  0  0  0  0  0  0  0  0  0  0  0
   28.7309    5.1501   -1.4296 C   0  0  0  0  0  0  0  0  0  0  0  0
   28.0266    6.3093   -3.0304 C   0  0  0  0  0  0  0  0  0  0  0  0
   31.4096    6.5900   -6.7624 C   0  0  0  0  0  0  0  0  0  0  0  0
   30.0143    6.0751   -4.4433 C   0  0  0  0  0  0  0  0  0  0  0  0
   34.6850    2.3017   -6.6999 C   0  0  0  0  0  0  0  0  0  0  0  0
   35.3160    1.4427   -5.8369 C   0  0  0  0  0  0  0  0  0  0  0  0
   31.9967    6.4571  -10.9166 C   0  0  0  0  0  0  0  0  0  0  0  0
   33.5577    4.8657   -8.0640 C   0  0  0  0  0  0  0  0  0  0  0  0
   30.4104    8.1046  -11.8045 C   0  0  0  0  0  0  0  0  0  0  0  0
   32.0775    6.8282   -8.0647 C   0  0  0  0  0  0  0  0  0  0  0  0
   32.0158    5.2074  -10.0223 C   0  0  0  0  0  0  0  0  0  0  0  0
   34.3969    4.0330   -8.9778 C   0  0  0  0  0  0  0  0  0  0  0  0
   27.6383    5.8929   -1.8520 N   0  0  0  0  0  0  0  0  0  0  0  0
   29.7758    5.0774   -2.2688 N   0  0  0  0  0  0  0  0  0  0  0  0
   29.2919    5.8339   -3.2913 N   0  0  0  0  0  0  0  0  0  0  0  0
   30.7070    6.7910  -11.2875 N   0  0  0  0  0  0  0  0  0  0  0  0
   32.5075    5.5434   -8.6684 N   0  0  0  0  0  0  0  0  0  0  0  0
   32.9821    7.0864  -11.3284 O   0  0  0  0  0  0  0  0  0  0  0  0
   33.7856    4.9230   -6.8474 O   0  0  0  0  0  0  0  0  0  0  0  0
   35.5809    2.9924   -8.1030 S   0  0  0  0  0  0  0  0  0  0  0  0
   36.9817    1.0878   -6.1865 Cl  0  0  0  0  0  0  0  0  0  0  0  0
  1  2  2  0
  3  5  2  0
  4  6  1  0
  1  7  1  0
  2  8  1  0
  3 11  1  0
  4 11  2  0
  5 12  1  0
  6 12  2  0
  7 13  2  0
  8 14  2  0
 13 14  1  0
 11 18  1  0
 15 19  1  0
 16 20  1  0
  9 21  1  0
 10 21  2  0
  9 22  2  0
 22 23  1  0
 10 23  1  0
 12 23  1  0
 17 24  1  0
 15 24  1  0
 19 25  1  0
 18 25  1  0
 16 25  1  0
 15 26  2  0
 16 27  2  0
 20 28  1  0
 13 28  1  0
 14 29  1  0
M  END
