7AMC_73B_B_201
     RDKit          3D

 31 34  0  0  0  0  0  0  0  0999 V2000
   25.2790   54.5361   50.0545 C   0  0  0  0  0  0  0  0  0  0  0  0
   26.4434   55.2305   49.3585 C   0  0  1  0  0  0  0  0  0  0  0  0
   26.1896   56.7100   49.0658 C   0  0  0  0  0  0  0  0  0  0  0  0
   27.4528   57.4669   48.8704 C   0  0  1  0  0  0  0  0  0  0  0  0
   27.1802   58.8560   48.4242 N   0  0  0  0  0  0  0  0  0  0  0  0
   28.1498   59.5813   47.6879 C   0  0  0  0  0  0  0  0  0  0  0  0
   27.8120   60.1288   46.4590 C   0  0  0  0  0  0  0  0  0  0  0  0
   28.7725   60.8460   45.7841 C   0  0  0  0  0  0  0  0  0  0  0  0
   29.9894   61.0598   46.3066 C   0  0  0  0  0  0  0  0  0  0  0  0
   31.1638   61.9921   45.3844 Cl  0  0  0  0  0  0  0  0  0  0  0  0
   30.3374   60.5369   47.5057 C   0  0  0  0  0  0  0  0  0  0  0  0
   29.4014   59.8010   48.2153 C   0  0  0  0  0  0  0  0  0  0  0  0
   28.1526   57.4721   50.2480 C   0  0  0  0  0  0  0  0  0  0  0  0
   28.6441   58.5857   50.9024 C   0  0  0  0  0  0  0  0  0  0  0  0
   29.1901   58.4780   52.1853 C   0  0  0  0  0  0  0  0  0  0  0  0
   29.1964   57.2490   52.8333 C   0  0  0  0  0  0  0  0  0  0  0  0
   28.7055   56.1267   52.2104 C   0  0  0  0  0  0  0  0  0  0  0  0
   28.2229   56.2363   50.8923 C   0  0  0  0  0  0  0  0  0  0  0  0
   27.6770   55.0833   50.1423 N   0  0  0  0  0  0  0  0  0  0  0  0
   28.3485   53.8151   50.0738 C   0  0  0  0  0  0  0  0  0  0  0  0
   29.4509   53.5053   51.0877 C   0  0  0  0  0  0  0  0  0  0  0  0
   28.0089   53.0447   49.2288 O   0  0  0  0  0  0  0  0  0  0  0  0
   29.8058   59.7078   52.8614 C   0  0  0  0  0  0  0  0  0  0  0  0
   31.2060   59.7375   53.0941 C   0  0  0  0  0  0  0  0  0  0  0  0
   31.8050   60.8335   53.6572 C   0  0  0  0  0  0  0  0  0  0  0  0
   30.9966   61.9164   54.0025 C   0  0  0  0  0  0  0  0  0  0  0  0
   29.6553   61.9224   53.7516 C   0  0  0  0  0  0  0  0  0  0  0  0
   29.0651   60.8274   53.1712 C   0  0  0  0  0  0  0  0  0  0  0  0
   31.5887   63.1519   54.6475 C   0  0  0  0  0  0  0  0  0  0  0  0
   32.0189   64.0724   53.9201 O   0  0  0  0  0  0  0  0  0  0  0  0
   31.6227   63.2181   55.8898 O   0  0  0  0  0  0  0  0  0  0  0  0
  2  1  1  1
  2  3  1  0
  3  4  1  0
  4  5  1  1
  5  6  1  0
  6  7  2  0
  7  8  1  0
  8  9  2  0
  9 10  1  0
  9 11  1  0
 11 12  2  0
  6 12  1  0
  4 13  1  0
 13 14  1  0
 14 15  2  0
 15 16  1  0
 16 17  2  0
 13 18  2  0
 17 18  1  0
  2 19  1  0
 18 19  1  0
 19 20  1  0
 20 21  1  0
 20 22  2  0
 15 23  1  0
 23 24  2  0
 24 25  1  0
 25 26  2  0
 26 27  1  0
 27 28  2  0
 23 28  1  0
 26 29  1  0
 29 30  2  0
 29 31  1  0
M  END
