8HFN_XGC_A_502
     RDKit          3D

 41 42  0  0  0  0  0  0  0  0999 V2000
   67.7634    3.3997   -5.3059 C   0  0  0  0  0  0  0  0  0  0  0  0
   70.2931   -2.2699   -1.8659 C   0  0  0  0  0  0  0  0  0  0  0  0
   70.9103   -2.8472   -0.7718 C   0  0  0  0  0  0  0  0  0  0  0  0
   70.4762   -2.4394    0.4919 C   0  0  0  0  0  0  0  0  0  0  0  0
   68.9367   -1.0152   -0.3837 C   0  0  0  0  0  0  0  0  0  0  0  0
   68.6742    0.5670   -4.9044 C   0  0  0  0  0  0  0  0  0  0  0  0
   68.5958   -0.7058   -2.8581 C   0  0  0  0  0  0  0  0  0  0  0  0
   67.2214   -0.8619   -3.0436 C   0  0  0  0  0  0  0  0  0  0  0  0
   67.3135    0.3847   -5.0990 C   0  0  0  0  0  0  0  0  0  0  0  0
   66.5919   -0.3288   -4.1561 C   0  0  0  0  0  0  0  0  0  0  0  0
   66.8526    2.2049   -5.0808 C   0  0  1  0  0  0  0  0  0  0  0  0
   69.2820   -1.3266   -1.6963 C   0  0  0  0  0  0  0  0  0  0  0  0
   70.5384   -4.1396    2.1390 C   0  0  0  0  0  0  0  0  0  0  0  0
   66.3114    1.6553   -6.3952 C   0  0  0  0  0  0  0  0  0  0  0  0
   69.3223    0.0208   -3.8074 C   0  0  0  0  0  0  0  0  0  0  0  0
   68.9586    3.0835   -5.8778 N   0  0  0  0  0  0  0  0  0  0  0  0
   69.5133   -1.5554    0.7012 N   0  0  0  0  0  0  0  0  0  0  0  0
   67.5447    1.1683   -4.2929 N   0  0  0  0  0  0  0  0  0  0  0  0
   67.4339    4.5320   -4.9715 O   0  0  0  0  0  0  0  0  0  0  0  0
   71.1113   -2.9747    1.5521 O   0  0  0  0  0  0  0  0  0  0  0  0
   69.3861    1.0673   -7.3471 O   0  0  0  0  0  0  0  0  0  0  0  0
   70.9202    1.6955   -5.5159 O   0  0  0  0  0  0  0  0  0  0  0  0
   67.4670    1.8252   -7.7813 S   0  0  0  0  0  0  0  0  0  0  0  0
   69.5871    1.5761   -6.0250 S   0  0  2  0  0  6  0  0  0  0  0  0
   70.5845   -2.5406   -2.8183 H   0  0  0  0  0  0  0  0  0  0  0  0
   71.6589   -3.5488   -0.8837 H   0  0  0  0  0  0  0  0  0  0  0  0
   68.1867   -0.3220   -0.2349 H   0  0  0  0  0  0  0  0  0  0  0  0
   66.6678   -1.3806   -2.3439 H   0  0  0  0  0  0  0  0  0  0  0  0
   66.8460    0.7742   -5.9326 H   0  0  0  0  0  0  0  0  0  0  0  0
   65.5768   -0.4644   -4.2836 H   0  0  0  0  0  0  0  0  0  0  0  0
   66.0056    2.5338   -4.5158 H   0  0  0  0  0  0  0  0  0  0  0  0
   71.1405   -4.4560    2.9650 H   0  0  0  0  0  0  0  0  0  0  0  0
   69.5500   -3.9164    2.4830 H   0  0  0  0  0  0  0  0  0  0  0  0
   70.4944   -4.9212    1.4097 H   0  0  0  0  0  0  0  0  0  0  0  0
   66.0918    0.6166   -6.2628 H   0  0  0  0  0  0  0  0  0  0  0  0
   65.4404    2.2264   -6.6402 H   0  0  0  0  0  0  0  0  0  0  0  0
   70.3397    0.1500   -3.6913 H   0  0  0  0  0  0  0  0  0  0  0  0
   69.4942    3.8281   -6.2355 H   0  0  0  0  0  0  0  0  0  0  0  0
   68.3590    0.8357   -4.8093 H   0  0  0  0  0  0  0  0  0  0  0  0
   67.8455    1.5626   -3.4017 H   0  0  0  0  0  0  0  0  0  0  0  0
   68.5967    1.1147   -7.5192 H   0  0  0  0  0  0  0  0  0  0  0  0
  2  3  4  0
  3  4  4  0
  7  8  4  0
  6  9  4  0
  8 10  4  0
  9 10  4  0
  1 11  1  0
  2 12  4  0
  5 12  4  0
  7 12  1  0
 11 14  1  0
  7 15  4  0
  6 15  4  0
  1 16  1  0
  4 17  4  0
  5 17  4  0
 11 18  1  0
  1 19  2  0
 13 20  1  0
  4 20  1  0
 14 23  1  0
 21 24  2  0
  6 24  1  0
 22 24  2  0
 24 16  1  1
  2 25  1  0
  3 26  1  0
  5 27  1  0
  8 28  1  0
  9 29  1  0
 10 30  1  0
 11 31  1  6
 13 32  1  0
 13 33  1  0
 13 34  1  0
 14 35  1  0
 14 36  1  0
 15 37  1  0
 16 38  1  0
 18 39  1  0
 18 40  1  0
 23 41  1  0
M  END
