7UP3_NZ0_A_305
     RDKit          3D

 35 37  0  0  0  0  0  0  0  0999 V2000
   -4.2711    3.2604  -11.6882 C   0  0  0  0  0  0  0  0  0  0  0  0
   -3.9309    3.3057  -13.0465 C   0  0  0  0  0  0  0  0  0  0  0  0
   -4.9563    3.5731  -14.0953 C   0  0  0  0  0  0  0  0  0  0  0  0
   -6.2479    4.0907  -13.7422 C   0  0  0  0  0  0  0  0  0  0  0  0
   -2.5734    3.1164  -13.3656 C   0  0  0  0  0  0  0  0  0  0  0  0
   -4.6548    3.4289  -15.4522 C   0  0  0  0  0  0  0  0  0  0  0  0
   -0.4546    3.6805   -9.2557 O   0  0  0  0  0  0  0  0  0  0  0  0
   -9.5184    4.8346  -15.8601 O   0  0  0  0  0  0  0  0  0  0  0  0
   -7.5293    4.3072  -10.4019 N   0  0  0  0  0  4  0  0  0  0  0  0
   -0.9005    2.5631   -9.9904 C   0  0  0  0  0  0  0  0  0  0  0  0
   -6.4110    4.8757  -10.2724 N   0  0  0  0  0  0  0  0  0  0  0  0
   -5.7976    4.8357  -11.5163 N   0  0  0  0  0  0  0  0  0  0  0  0
   -7.1084    4.4923  -14.8186 C   0  0  0  0  0  0  0  0  0  0  0  0
   -8.7271    5.2253  -14.7187 S   0  0  1  0  0  6  0  0  0  0  0  0
   -8.4496    6.6369  -14.5835 O   0  0  0  0  0  0  0  0  0  0  0  0
   -9.5231    4.7279  -13.4009 N   0  0  0  0  0  0  0  0  0  0  0  0
   -6.6173    4.2225  -12.3563 C   0  0  0  0  0  0  0  0  0  0  0  0
   -7.7437    3.8973  -11.6381 N   0  0  0  0  0  0  0  0  0  0  0  0
   -6.8256    4.3149  -16.0795 N   0  0  0  0  0  0  0  0  0  0  0  0
   -5.6112    3.7508  -16.4166 C   0  0  0  0  0  0  0  0  0  0  0  0
   -1.6171    2.8735  -12.3777 C   0  0  0  0  0  0  0  0  0  0  0  0
   -1.9670    2.8287  -11.0250 C   0  0  0  0  0  0  0  0  0  0  0  0
   -3.3196    3.0318  -10.6870 C   0  0  0  0  0  0  0  0  0  0  0  0
   -5.2568    3.4003  -11.4163 H   0  0  0  0  0  0  0  0  0  0  0  0
   -2.2777    3.1580  -14.3534 H   0  0  0  0  0  0  0  0  0  0  0  0
   -3.7258    3.0847  -15.7411 H   0  0  0  0  0  0  0  0  0  0  0  0
    0.2255    3.4010   -8.6231 H   0  0  0  0  0  0  0  0  0  0  0  0
   -8.1697    4.1833   -9.6645 H   0  0  0  0  0  0  0  0  0  0  0  0
   -1.2906    1.8497   -9.2950 H   0  0  0  0  0  0  0  0  0  0  0  0
   -0.0477    2.2220  -10.5392 H   0  0  0  0  0  0  0  0  0  0  0  0
   -9.7262    3.7316  -13.4823 H   0  0  0  0  0  0  0  0  0  0  0  0
  -10.3968    5.2472  -13.3152 H   0  0  0  0  0  0  0  0  0  0  0  0
   -5.4048    3.5618  -17.4099 H   0  0  0  0  0  0  0  0  0  0  0  0
   -0.6333    2.7242  -12.6513 H   0  0  0  0  0  0  0  0  0  0  0  0
   -3.6102    3.0120   -9.6970 H   0  0  0  0  0  0  0  0  0  0  0  0
  1  2  4  0
  2  3  1  0
  3  4  4  0
  2  5  4  0
  3  6  4  0
  7 10  1  0
  9 11  4  0
 11 12  4  0
  4 13  4  0
  8 14  2  0
 13 14  1  0
 14 15  2  0
 14 16  1  1
  4 17  1  0
 12 17  4  0
 17 18  4  0
  9 18  4  0
 13 19  4  0
 19 20  4  0
  6 20  4  0
  5 21  4  0
 21 22  4  0
 10 22  1  0
  1 23  4  0
 22 23  4  0
  1 24  1  0
  5 25  1  0
  6 26  1  0
  7 27  1  0
  9 28  1  0
 10 29  1  0
 10 30  1  0
 16 31  1  0
 16 32  1  0
 20 33  1  0
 21 34  1  0
 23 35  1  0
M  CHG  1   9   1
M  END
