7OZ9_NGK_BBB_602
     RDKit          3D

 19 19  0  0  0  0  0  0  0  0999 V2000
   46.1833   45.2952   74.4664 C   0  0  1  0  0  0  0  0  0  0  0  0
   45.2643   46.5210   74.5244 C   0  0  1  0  0  0  0  0  0  0  0  0
   43.9217   46.2413   73.8473 C   0  0  2  0  0  0  0  0  0  0  0  0
   44.1356   45.6736   72.4462 C   0  0  2  0  0  0  0  0  0  0  0  0
   45.0513   44.4568   72.5208 C   0  0  1  0  0  0  0  0  0  0  0  0
   45.3669   43.8828   71.1602 C   0  0  0  0  0  0  0  0  0  0  0  0
   45.4299   48.2133   76.2832 C   0  0  0  0  0  0  0  0  0  0  0  0
   45.6315   48.3952   77.7578 C   0  0  0  0  0  0  0  0  0  0  0  0
   45.0956   46.9794   75.8898 N   0  0  0  0  0  0  0  0  0  0  0  0
   45.6826   44.2911   75.3031 O   0  0  0  0  0  0  0  0  0  0  0  0
   43.1357   47.4199   73.7443 O   0  0  0  0  0  0  0  0  0  0  0  0
   44.7387   46.7339   71.6057 O   0  0  0  0  0  0  0  0  0  0  0  0
   46.3102   44.8098   73.1342 O   0  0  0  0  0  0  0  0  0  0  0  0
   46.3508   42.8550   71.2594 O   0  0  0  0  0  0  0  0  0  0  0  0
   45.5759   49.1364   75.4821 O   0  0  0  0  0  0  0  0  0  0  0  0
   43.9433   47.2640   70.3228 S   0  0  2  0  0  0  0  0  0  0  0  0
   43.3361   46.1225   69.7112 O   0  0  0  0  0  0  0  0  0  0  0  0
   44.9533   47.8849   69.5086 O   0  0  0  0  0  0  0  0  0  0  0  0
   42.9659   48.2004   70.8307 O   0  0  0  0  0  0  0  0  0  0  0  0
  1  2  1  0
  2  3  1  0
  3  4  1  0
  4  5  1  0
  5  6  1  6
  7  8  1  0
  2  9  1  1
  7  9  1  0
  1 10  1  1
  3 11  1  6
  4 12  1  6
  1 13  1  0
  5 13  1  0
  6 14  1  0
  7 15  2  0
 12 16  1  0
 16 17  2  0
 16 18  1  6
 16 19  2  0
M  END
