
     RDKit          3D

  9  9  0  0  0  0  0  0  0  0999 V2000
   35.6700   11.4870   56.1888 N   0  0  0  0  0  0  0  0  0  0  0  0
   35.3158   12.4945   55.7339 C   0  0  0  0  0  0  0  0  0  0  0  0
   34.8596   13.7379   55.2136 C   0  0  0  0  0  0  0  0  0  0  0  0
   34.9312   14.8868   55.9725 C   0  0  0  0  0  0  0  0  0  0  0  0
   34.5175   16.0950   55.5404 N   0  0  0  0  0  0  0  0  0  0  0  0
   34.0252   16.1233   54.2945 C   0  0  0  0  0  0  0  0  0  0  0  0
   33.9068   15.0687   53.4719 N   0  0  0  0  0  0  0  0  0  0  0  0
   34.3208   13.8811   53.9471 C   0  0  0  0  0  0  0  0  0  0  0  0
   34.2158   12.8224   53.0463 N   0  0  0  0  0  0  0  0  0  0  0  0
  1  2  3  0
  2  3  1  0
  3  4  4  0
  4  5  4  0
  5  6  4  0
  6  7  4  0
  7  8  4  0
  3  8  4  0
  8  9  1  0
M  END
