2BM2_PM2_B_3211
     RDKit          3D

 30 33  0  0  0  0  0  0  0  0999 V2000
   44.0410  110.8130   82.1470 C   0  0  0  0  0  0  0  0  0  0  0  0
   44.2610  111.3110   80.8040 C   0  0  0  0  0  0  0  0  0  0  0  0
   45.2100  110.5560   82.9790 C   0  0  0  0  0  0  0  0  0  0  0  0
   45.6100  111.5430   80.3020 C   0  0  0  0  0  0  0  0  0  0  0  0
   46.5360  110.7870   82.4820 C   0  0  0  0  0  0  0  0  0  0  0  0
   46.7450  111.2750   81.1590 C   0  0  0  0  0  0  0  0  0  0  0  0
   45.8300  112.0660   78.9070 C   0  0  0  0  0  0  0  0  0  0  0  0
   45.1380  111.2800   77.8400 N   0  0  0  0  0  0  0  0  0  0  0  0
   42.0260  111.7750   83.5410 C   0  0  0  0  0  0  0  0  0  0  0  0
   40.6110  111.3840   84.1200 C   0  0  0  0  0  0  0  0  0  0  0  0
   38.5650  111.7500   82.5500 C   0  0  0  0  0  0  0  0  0  0  0  0
   37.9530  111.4380   81.5380 O   0  0  0  0  0  0  0  0  0  0  0  0
   42.6420  110.5510   82.7440 C   0  0  0  0  0  0  0  0  0  0  0  0
   39.7000  111.0510   82.9940 N   0  0  0  0  0  0  0  0  0  0  0  0
   40.2150  109.8540   82.2560 C   0  0  0  0  0  0  0  0  0  0  0  0
   41.6090  110.0850   81.6430 C   0  0  0  0  0  0  0  0  0  0  0  0
   37.9590  112.9180   83.2770 C   0  0  0  0  0  0  0  0  0  0  0  0
   37.6670  114.1550   82.6070 C   0  0  0  0  0  0  0  0  0  0  0  0
   37.6220  112.8260   84.6570 C   0  0  0  0  0  0  0  0  0  0  0  0
   37.0480  115.2260   83.3700 C   0  0  0  0  0  0  0  0  0  0  0  0
   37.0540  113.8200   85.3650 N   0  0  0  0  0  0  0  0  0  0  0  0
   36.6890  116.5330   82.7400 C   0  0  0  0  0  0  0  0  0  0  0  0
   36.7700  114.9800   84.7460 C   0  0  0  0  0  0  0  0  0  0  0  0
   35.1840  116.7610   82.6530 C   0  0  0  0  0  0  0  0  0  0  0  0
   34.3910  115.8010   81.8010 C   0  0  0  0  0  0  0  0  0  0  0  0
   34.2890  115.9720   80.3780 C   0  0  0  0  0  0  0  0  0  0  0  0
   33.7020  114.6730   82.4240 C   0  0  0  0  0  0  0  0  0  0  0  0
   33.5110  115.0380   79.5610 C   0  0  0  0  0  0  0  0  0  0  0  0
   32.9400  113.7600   81.6260 C   0  0  0  0  0  0  0  0  0  0  0  0
   32.8370  113.9310   80.1880 C   0  0  0  0  0  0  0  0  0  0  0  0
  1  2  2  0
  1  3  1  0
  2  4  1  0
  3  5  2  0
  4  6  2  0
  5  6  1  0
  4  7  1  0
  7  8  1  0
  9 10  1  0
 11 12  2  0
  1 13  1  0
  9 13  1  0
 10 14  1  0
 11 14  1  0
 14 15  1  0
 13 16  1  0
 15 16  1  0
 11 17  1  0
 17 18  2  0
 17 19  1  0
 18 20  1  0
 19 21  2  0
 20 22  1  0
 20 23  2  0
 21 23  1  0
 22 24  1  0
 24 25  1  0
 25 26  2  0
 25 27  1  0
 26 28  1  0
 27 29  2  0
 28 30  2  0
 29 30  1  0
M  END
$$$$
2BM2_PM2_D_3211
     RDKit          3D

 30 33  0  0  0  0  0  0  0  0999 V2000
   28.2180  113.2040   95.1730 C   0  0  0  0  0  0  0  0  0  0  0  0
   28.2100  113.8790   96.4470 C   0  0  0  0  0  0  0  0  0  0  0  0
   26.9780  113.1100   94.4250 C   0  0  0  0  0  0  0  0  0  0  0  0
   27.0250  114.4530   96.9880 C   0  0  0  0  0  0  0  0  0  0  0  0
   25.7740  113.6810   94.9560 C   0  0  0  0  0  0  0  0  0  0  0  0
   25.7820  114.3540   96.2320 C   0  0  0  0  0  0  0  0  0  0  0  0
   27.0900  115.1420   98.3210 C   0  0  0  0  0  0  0  0  0  0  0  0
   27.0970  114.1780   99.4530 N   0  0  0  0  0  0  0  0  0  0  0  0
   30.3890  113.5670   93.7700 C   0  0  0  0  0  0  0  0  0  0  0  0
   31.6710  112.8140   93.2580 C   0  0  0  0  0  0  0  0  0  0  0  0
   33.7240  112.8040   94.8950 C   0  0  0  0  0  0  0  0  0  0  0  0
   34.1810  112.4540   95.9770 O   0  0  0  0  0  0  0  0  0  0  0  0
   29.4930  112.5910   94.6180 C   0  0  0  0  0  0  0  0  0  0  0  0
   32.4620  112.3530   94.4330 N   0  0  0  0  0  0  0  0  0  0  0  0
   31.6470  111.3770   95.2290 C   0  0  0  0  0  0  0  0  0  0  0  0
   30.3700  111.9710   95.7790 C   0  0  0  0  0  0  0  0  0  0  0  0
   34.6290  113.7200   94.1000 C   0  0  0  0  0  0  0  0  0  0  0  0
   35.3220  114.8140   94.7310 C   0  0  0  0  0  0  0  0  0  0  0  0
   34.8510  113.5360   92.7000 C   0  0  0  0  0  0  0  0  0  0  0  0
   36.1970  115.6720   93.9490 C   0  0  0  0  0  0  0  0  0  0  0  0
   35.6640  114.3380   91.9580 N   0  0  0  0  0  0  0  0  0  0  0  0
   36.9500  116.8390   94.5960 C   0  0  0  0  0  0  0  0  0  0  0  0
   36.3150  115.3680   92.5580 C   0  0  0  0  0  0  0  0  0  0  0  0
   38.4740  116.6920   94.7410 C   0  0  0  0  0  0  0  0  0  0  0  0
   38.9900  115.5270   95.5730 C   0  0  0  0  0  0  0  0  0  0  0  0
   39.0730  115.5950   96.9920 C   0  0  0  0  0  0  0  0  0  0  0  0
   39.4190  114.2930   94.9100 C   0  0  0  0  0  0  0  0  0  0  0  0
   39.5720  114.4640   97.7650 C   0  0  0  0  0  0  0  0  0  0  0  0
   39.9160  113.1730   95.6630 C   0  0  0  0  0  0  0  0  0  0  0  0
   39.9960  113.2570   97.1100 C   0  0  0  0  0  0  0  0  0  0  0  0
  1  2  2  0
  1  3  1  0
  2  4  1  0
  3  5  2  0
  4  6  2  0
  5  6  1  0
  4  7  1  0
  7  8  1  0
  9 10  1  0
 11 12  2  0
  1 13  1  0
  9 13  1  0
 10 14  1  0
 11 14  1  0
 14 15  1  0
 13 16  1  0
 15 16  1  0
 11 17  1  0
 17 18  2  0
 17 19  1  0
 18 20  1  0
 19 21  2  0
 20 22  1  0
 20 23  2  0
 21 23  1  0
 22 24  1  0
 24 25  1  0
 25 26  2  0
 25 27  1  0
 26 28  1  0
 27 29  2  0
 28 30  2  0
 29 30  1  0
M  END
$$$$
2BM2_PM2_C_3211
     RDKit          3D

 30 33  0  0  0  0  0  0  0  0999 V2000
   40.2710   75.3160   93.8450 C   0  0  0  0  0  0  0  0  0  0  0  0
   40.5150   74.6520   95.1130 C   0  0  0  0  0  0  0  0  0  0  0  0
   41.3340   75.3240   92.8270 C   0  0  0  0  0  0  0  0  0  0  0  0
   41.7630   73.9970   95.3890 C   0  0  0  0  0  0  0  0  0  0  0  0
   42.6010   74.6660   93.0970 C   0  0  0  0  0  0  0  0  0  0  0  0
   42.8200   73.9980   94.3760 C   0  0  0  0  0  0  0  0  0  0  0  0
   41.9490   73.3340   96.7110 C   0  0  0  0  0  0  0  0  0  0  0  0
   42.2330   74.3120   97.8200 N   0  0  0  0  0  0  0  0  0  0  0  0
   37.8460   75.0120   92.9580 C   0  0  0  0  0  0  0  0  0  0  0  0
   36.5260   75.8000   92.6630 C   0  0  0  0  0  0  0  0  0  0  0  0
   34.8900   76.0160   94.6630 C   0  0  0  0  0  0  0  0  0  0  0  0
   34.7060   76.4410   95.7800 O   0  0  0  0  0  0  0  0  0  0  0  0
   38.9360   75.9950   93.5410 C   0  0  0  0  0  0  0  0  0  0  0  0
   36.0250   76.3850   93.9270 N   0  0  0  0  0  0  0  0  0  0  0  0
   37.0190   77.3630   94.4800 C   0  0  0  0  0  0  0  0  0  0  0  0
   38.3580   76.7070   94.8100 C   0  0  0  0  0  0  0  0  0  0  0  0
   33.8090   75.1190   94.1350 C   0  0  0  0  0  0  0  0  0  0  0  0
   33.3390   73.9640   94.8740 C   0  0  0  0  0  0  0  0  0  0  0  0
   33.1950   75.3880   92.8890 C   0  0  0  0  0  0  0  0  0  0  0  0
   32.2720   73.1340   94.3120 C   0  0  0  0  0  0  0  0  0  0  0  0
   32.2100   74.6270   92.3610 N   0  0  0  0  0  0  0  0  0  0  0  0
   31.7230   71.9180   95.0550 C   0  0  0  0  0  0  0  0  0  0  0  0
   31.7570   73.5340   93.0490 C   0  0  0  0  0  0  0  0  0  0  0  0
   30.2650   72.0700   95.5430 C   0  0  0  0  0  0  0  0  0  0  0  0
   29.9850   73.1800   96.5390 C   0  0  0  0  0  0  0  0  0  0  0  0
   30.0390   72.9520   97.9510 C   0  0  0  0  0  0  0  0  0  0  0  0
   29.6590   74.5280   96.0640 C   0  0  0  0  0  0  0  0  0  0  0  0
   29.7750   74.0340   98.9020 C   0  0  0  0  0  0  0  0  0  0  0  0
   29.3990   75.5930   96.9900 C   0  0  0  0  0  0  0  0  0  0  0  0
   29.4530   75.3610   98.4220 C   0  0  0  0  0  0  0  0  0  0  0  0
  1  2  2  0
  1  3  1  0
  2  4  1  0
  3  5  2  0
  4  6  2  0
  5  6  1  0
  4  7  1  0
  7  8  1  0
  9 10  1  0
 11 12  2  0
  1 13  1  0
  9 13  1  0
 10 14  1  0
 11 14  1  0
 14 15  1  0
 13 16  1  0
 15 16  1  0
 11 17  1  0
 17 18  2  0
 17 19  1  0
 18 20  1  0
 19 21  2  0
 20 22  1  0
 20 23  2  0
 21 23  1  0
 22 24  1  0
 24 25  1  0
 25 26  2  0
 25 27  1  0
 26 28  1  0
 27 29  2  0
 28 30  2  0
 29 30  1  0
M  END
$$$$
2BM2_PM2_A_3211
     RDKit          3D

 30 33  0  0  0  0  0  0  0  0999 V2000
   21.9410   77.8570   84.3200 C   0  0  0  0  0  0  0  0  0  0  0  0
   21.5260   77.3880   83.0330 C   0  0  0  0  0  0  0  0  0  0  0  0
   20.9420   78.0630   85.3570 C   0  0  0  0  0  0  0  0  0  0  0  0
   20.1590   77.1240   82.7470 C   0  0  0  0  0  0  0  0  0  0  0  0
   19.5480   77.7930   85.0870 C   0  0  0  0  0  0  0  0  0  0  0  0
   19.1480   77.3260   83.7890 C   0  0  0  0  0  0  0  0  0  0  0  0
   19.7930   76.6490   81.3810 C   0  0  0  0  0  0  0  0  0  0  0  0
   19.9620   77.7300   80.3600 N   0  0  0  0  0  0  0  0  0  0  0  0
   24.1010   76.8870   85.3070 C   0  0  0  0  0  0  0  0  0  0  0  0
   25.6010   77.2480   85.5920 C   0  0  0  0  0  0  0  0  0  0  0  0
   27.3410   76.8680   83.6660 C   0  0  0  0  0  0  0  0  0  0  0  0
   27.7170   77.1780   82.5380 O   0  0  0  0  0  0  0  0  0  0  0  0
   23.3850   78.1250   84.6200 C   0  0  0  0  0  0  0  0  0  0  0  0
   26.2910   77.5720   84.3170 N   0  0  0  0  0  0  0  0  0  0  0  0
   25.6260   78.7660   83.6560 C   0  0  0  0  0  0  0  0  0  0  0  0
   24.1700   78.5300   83.3220 C   0  0  0  0  0  0  0  0  0  0  0  0
   28.1210   75.7250   84.2780 C   0  0  0  0  0  0  0  0  0  0  0  0
   28.3580   74.4820   83.5610 C   0  0  0  0  0  0  0  0  0  0  0  0
   28.6780   75.8350   85.5770 C   0  0  0  0  0  0  0  0  0  0  0  0
   29.1500   73.4180   84.2020 C   0  0  0  0  0  0  0  0  0  0  0  0
   29.4010   74.8650   86.1740 N   0  0  0  0  0  0  0  0  0  0  0  0
   29.4490   72.1000   83.4980 C   0  0  0  0  0  0  0  0  0  0  0  0
   29.6400   73.6890   85.5140 C   0  0  0  0  0  0  0  0  0  0  0  0
   30.9000   71.9240   83.0150 C   0  0  0  0  0  0  0  0  0  0  0  0
   31.3750   72.9050   81.9790 C   0  0  0  0  0  0  0  0  0  0  0  0
   31.1490   72.6970   80.5860 C   0  0  0  0  0  0  0  0  0  0  0  0
   32.0810   74.1130   82.3950 C   0  0  0  0  0  0  0  0  0  0  0  0
   31.6210   73.6890   79.5930 C   0  0  0  0  0  0  0  0  0  0  0  0
   32.5380   75.0750   81.4340 C   0  0  0  0  0  0  0  0  0  0  0  0
   32.3130   74.8760   80.0230 C   0  0  0  0  0  0  0  0  0  0  0  0
  1  2  2  0
  1  3  1  0
  2  4  1  0
  3  5  2  0
  4  6  2  0
  5  6  1  0
  4  7  1  0
  7  8  1  0
  9 10  1  0
 11 12  2  0
  1 13  1  0
  9 13  1  0
 10 14  1  0
 11 14  1  0
 14 15  1  0
 13 16  1  0
 15 16  1  0
 11 17  1  0
 17 18  2  0
 17 19  1  0
 18 20  1  0
 19 21  2  0
 20 22  1  0
 20 23  2  0
 21 23  1  0
 22 24  1  0
 24 25  1  0
 25 26  2  0
 25 27  1  0
 26 28  1  0
 27 29  2  0
 28 30  2  0
 29 30  1  0
M  END
$$$$
