7JHQ_VAJ_A_301
     RDKit          3D

 18 19  0  0  0  0  0  0  0  0999 V2000
   33.6491  -56.3874    7.2006 C   0  0  0  0  0  0  0  0  0  0  0  0
   34.5110  -57.1887    7.9401 C   0  0  0  0  0  0  0  0  0  0  0  0
   35.1735  -58.2478    7.3475 C   0  0  0  0  0  0  0  0  0  0  0  0
   35.0015  -58.5454    5.9988 C   0  0  0  0  0  0  0  0  0  0  0  0
   35.7319  -59.6692    5.3592 C   0  0  0  0  0  0  0  0  0  0  0  0
   35.9455  -61.2999    3.5878 C   0  0  0  0  0  0  0  0  0  0  0  0
   37.1215  -61.7675    4.1456 C   0  0  0  0  0  0  0  0  0  0  0  0
   38.9066  -61.6723    5.8874 C   0  0  0  0  0  0  0  0  0  0  0  0
   32.9590  -55.2303    7.8329 C   0  0  0  0  0  0  0  0  0  0  0  0
   31.9189  -54.7925    7.1833 O   0  0  0  0  0  0  0  0  0  0  0  0
   37.6205  -61.1959    5.3091 C   0  0  0  0  0  0  0  0  0  0  0  0
   36.9190  -60.1550    5.9120 C   0  0  0  0  0  0  0  0  0  0  0  0
   34.1304  -57.7403    5.2651 C   0  0  0  0  0  0  0  0  0  0  0  0
   33.4639  -56.6805    5.8536 C   0  0  0  0  0  0  0  0  0  0  0  0
   35.2567  -60.2582    4.1864 C   0  0  0  0  0  0  0  0  0  0  0  0
   33.3547  -54.7377    8.8799 O   0  0  0  0  0  0  0  0  0  0  0  0
   39.9672  -61.1274    5.6147 O   0  0  0  0  0  0  0  0  0  0  0  0
   38.8115  -62.6968    6.6913 O   0  0  0  0  0  0  0  0  0  0  0  0
  1  2  2  0
  2  3  1  0
  3  4  2  0
  4  5  1  0
  6  7  2  0
  1  9  1  0
  9 10  2  0
  7 11  1  0
  8 11  1  0
  5 12  1  0
 11 12  2  0
  4 13  1  0
  1 14  1  0
 13 14  2  0
  5 15  2  0
  6 15  1  0
  9 16  1  0
  8 17  2  0
  8 18  1  0
M  END
