7WJB_BGC_A_802
     RDKit          3D

 12 12  0  0  0  0  0  0  0  0999 V2000
   38.7122   37.7678  -10.7516 C   0  0  2  0  0  0  0  0  0  0  0  0
   39.4272   39.0847  -10.7891 C   0  0  2  0  0  0  0  0  0  0  0  0
   39.2110   39.6766  -12.1457 C   0  0  1  0  0  0  0  0  0  0  0  0
   39.5529   38.7464  -13.2509 C   0  0  1  0  0  0  0  0  0  0  0  0
   41.0230   38.8735  -13.5882 C   0  0  0  0  0  0  0  0  0  0  0  0
   39.1864   36.8983  -11.8811 C   0  0  2  0  0  0  0  0  0  0  0  0
   40.4804   36.3834  -11.6462 O   0  0  0  0  0  0  0  0  0  0  0  0
   37.3426   37.9187  -10.8351 O   0  0  0  0  0  0  0  0  0  0  0  0
   40.7873   38.8950  -10.6305 O   0  0  0  0  0  0  0  0  0  0  0  0
   37.9350   40.2356  -12.3002 O   0  0  0  0  0  0  0  0  0  0  0  0
   39.1152   37.4543  -13.1278 O   0  0  0  0  0  0  0  0  0  0  0  0
   41.2870   38.5328  -14.9162 O   0  0  0  0  0  0  0  0  0  0  0  0
  1  2  1  0
  2  3  1  0
  3  4  1  0
  4  5  1  0
  1  6  1  0
  6  7  1  1
  1  8  1  6
  2  9  1  6
  3 10  1  6
  4 11  1  1
  6 11  1  0
  5 12  1  6
M  END
$$$$
