7WDT_NGS_A_901
     RDKit          3D

 19 19  0  0  0  0  0  0  0  0999 V2000
   24.1787   -5.6618   -6.9877 C   0  0  2  0  0  0  0  0  0  0  0  0
   23.6645   -4.3046   -6.5757 C   0  0  1  0  0  0  0  0  0  0  0  0
   22.1660   -4.3537   -6.5907 C   0  0  2  0  0  0  0  0  0  0  0  0
   21.5580   -5.5854   -6.0350 C   0  0  1  0  0  0  0  0  0  0  0  0
   22.3756   -6.8208   -6.0683 C   0  0  1  0  0  0  0  0  0  0  0  0
   21.7711   -7.9020   -6.9579 C   0  0  0  0  0  0  0  0  0  0  0  0
   23.9775   -5.7703   -8.3570 O   0  0  0  0  0  0  0  0  0  0  0  0
   21.7166   -4.0707   -7.8996 O   0  0  0  0  0  0  0  0  0  0  0  0
   23.7262   -6.6937   -6.2335 O   0  0  0  0  0  0  0  0  0  0  0  0
   22.6911   -8.7632   -7.4852 O   0  0  0  0  0  0  0  0  0  0  0  0
   24.1774   -3.8732   -5.3086 N   0  0  0  0  0  0  0  0  0  0  0  0
   24.8471   -2.6100   -5.2606 C   0  0  0  0  0  0  0  0  0  0  0  0
   24.7327   -1.7862   -6.2086 O   0  0  0  0  0  0  0  0  0  0  0  0
   25.6864   -2.2663   -4.0804 C   0  0  0  0  0  0  0  0  0  0  0  0
   21.9935  -10.1117   -8.2169 S   0  0  2  0  0  6  0  0  0  0  0  0
   21.0540   -9.5872   -9.2698 O   0  0  0  0  0  0  0  0  0  0  0  0
   21.1096  -11.0425   -7.1565 O   0  0  0  0  0  0  0  0  0  0  0  0
   23.0678  -10.9555   -8.8645 O   0  0  0  0  0  0  0  0  0  0  0  0
   21.0193   -5.3096   -4.7571 O   0  0  0  0  0  0  0  0  0  0  0  0
  1  2  1  0
  2  3  1  0
  3  4  1  0
  4  5  1  0
  5  6  1  0
  1  7  1  6
  3  8  1  6
  1  9  1  0
  5  9  1  6
  6 10  1  1
  2 11  1  1
 11 12  1  0
 12 13  2  0
 14 12  1  1
 10 15  1  0
 15 16  2  0
 15 17  1  1
 15 18  2  0
  4 19  1  1
M  END
$$$$
