7REE_4LY_A_1201
     RDKit          3D

 71 76  0  0  0  0  0  0  0  0999 V2000
   12.4527  -16.6752    5.4818 C   0  0  0  0  0  0  0  0  0  0  0  0
   10.7178  -19.4096    5.7310 C   0  0  0  0  0  0  0  0  0  0  0  0
   11.9669  -20.0944    5.7753 C   0  0  0  0  0  0  0  0  0  0  0  0
    6.1274  -17.2014    5.9325 C   0  0  0  0  0  0  0  0  0  0  0  0
    7.0552  -16.1901    5.9976 C   0  0  0  0  0  0  0  0  0  0  0  0
    4.8758  -13.0819    6.0158 C   0  0  0  0  0  0  0  0  0  0  0  0
    4.5550  -10.9525    7.2803 C   0  0  0  0  0  0  0  0  0  0  0  0
   14.0368  -13.4194    4.7507 C   0  0  0  0  0  0  0  0  0  0  0  0
   13.9326  -14.7514    5.2144 C   0  0  2  0  0  0  0  0  0  0  0  0
   14.1034  -14.6269    6.7561 C   0  0  0  0  0  0  0  0  0  0  0  0
   12.8379  -14.7145    7.5574 C   0  0  0  0  0  0  0  0  0  0  0  0
   11.1655  -16.9529    5.0367 C   0  0  0  0  0  0  0  0  0  0  0  0
   10.2576  -18.1248    5.3868 C   0  0  0  0  0  0  0  0  0  0  0  0
    9.7572  -20.3281    6.1174 C   0  0  0  0  0  0  0  0  0  0  0  0
   11.6842  -21.3600    6.1891 C   0  0  0  0  0  0  0  0  0  0  0  0
    8.1182  -18.7798    5.8242 C   0  0  0  0  0  0  0  0  0  0  0  0
    6.6303  -14.8834    6.0252 C   0  0  0  0  0  0  0  0  0  0  0  0
    5.3008  -14.5593    6.0071 C   0  0  0  0  0  0  0  0  0  0  0  0
    5.0214  -12.3250    7.2993 C   0  0  0  0  0  0  0  0  0  0  0  0
    4.3765   -9.0843    5.8988 C   0  0  0  0  0  0  0  0  0  0  0  0
    4.1435  -10.8807    4.9380 C   0  0  0  0  0  0  0  0  0  0  0  0
    4.5952  -12.4873    4.8338 C   0  0  0  0  0  0  0  0  0  0  0  0
    4.3775  -15.5717    5.9414 C   0  0  0  0  0  0  0  0  0  0  0  0
    4.7656  -16.9116    5.9117 C   0  0  0  0  0  0  0  0  0  0  0  0
   10.6789  -15.8633    4.3441 C   0  0  0  0  0  0  0  0  0  0  0  0
   15.1378  -15.2390    4.5967 C   0  0  0  0  0  0  0  0  0  0  0  0
   14.4588  -12.2696    1.7431 C   0  0  0  0  0  0  0  0  0  0  0  0
   14.8311  -12.0452    0.2993 C   0  0  0  0  0  0  0  0  0  0  0  0
    7.5681  -13.9126    6.0729 F   0  0  0  0  0  0  0  0  0  0  0  0
    3.0284  -15.3500    5.9258 F   0  0  0  0  0  0  0  0  0  0  0  0
   15.2542  -13.8509    4.0358 N   0  0  0  0  0  0  0  0  0  0  0  0
   11.8186  -14.8347    8.0431 N   0  0  0  0  0  0  0  0  0  0  0  0
   12.7552  -15.4773    5.0226 N   0  0  0  0  0  4  0  0  0  0  0  0
   10.3573  -21.4972    6.4083 N   0  0  0  0  0  4  0  0  0  0  0  0
    8.4625  -20.0006    6.1671 N   0  0  0  0  0  0  0  0  0  0  0  0
    6.7277  -18.4979    5.9114 N   0  0  0  0  0  0  0  0  0  0  0  0
    4.7312  -10.2925    5.8766 N   0  0  0  0  0  0  0  0  0  0  0  0
    8.9606  -17.8461    5.4712 N   0  0  0  0  0  0  0  0  0  0  0  0
   11.7085  -14.9659    4.3297 N   0  0  0  0  0  0  0  0  0  0  0  0
   16.9914  -12.6515    2.5907 O   0  0  0  0  0  0  0  0  0  0  0  0
   15.8565  -14.5263    1.6815 O   0  0  0  0  0  0  0  0  0  0  0  0
   15.7324  -13.3495    2.4946 S   0  0  2  0  0  6  0  0  0  0  0  0
   13.0528  -17.2861    6.0579 H   0  0  0  0  0  0  0  0  0  0  0  0
   12.8955  -19.7095    5.5415 H   0  0  0  0  0  0  0  0  0  0  0  0
    8.0631  -16.4100    6.0257 H   0  0  0  0  0  0  0  0  0  0  0  0
    5.1120  -10.3886    7.9992 H   0  0  0  0  0  0  0  0  0  0  0  0
    3.5109  -10.9557    7.5146 H   0  0  0  0  0  0  0  0  0  0  0  0
   14.2005  -12.6893    5.5156 H   0  0  0  0  0  0  0  0  0  0  0  0
   13.2290  -12.9263    4.2516 H   0  0  0  0  0  0  0  0  0  0  0  0
   14.5584  -13.6805    6.9616 H   0  0  0  0  0  0  0  0  0  0  0  0
   14.6970  -15.4659    7.0537 H   0  0  0  0  0  0  0  0  0  0  0  0
   12.3832  -22.1082    6.3173 H   0  0  0  0  0  0  0  0  0  0  0  0
    6.0596  -12.3151    7.5582 H   0  0  0  0  0  0  0  0  0  0  0  0
    4.4002  -12.8327    8.0073 H   0  0  0  0  0  0  0  0  0  0  0  0
    4.5069   -8.6564    4.9268 H   0  0  0  0  0  0  0  0  0  0  0  0
    4.9748   -8.5500    6.6069 H   0  0  0  0  0  0  0  0  0  0  0  0
    3.3466   -9.0200    6.1815 H   0  0  0  0  0  0  0  0  0  0  0  0
    3.0877  -10.8276    5.1030 H   0  0  0  0  0  0  0  0  0  0  0  0
    4.4139  -10.3987    4.0218 H   0  0  0  0  0  0  0  0  0  0  0  0
    4.6555  -12.9885    3.9337 H   0  0  0  0  0  0  0  0  0  0  0  0
    4.0631  -17.6666    5.8754 H   0  0  0  0  0  0  0  0  0  0  0  0
    9.7413  -15.7509    3.9278 H   0  0  0  0  0  0  0  0  0  0  0  0
   14.9970  -16.0132    3.8717 H   0  0  0  0  0  0  0  0  0  0  0  0
   15.9236  -15.7149    5.1452 H   0  0  0  0  0  0  0  0  0  0  0  0
   13.5010  -12.7426    1.8019 H   0  0  0  0  0  0  0  0  0  0  0  0
   14.4090  -11.3360    2.2635 H   0  0  0  0  0  0  0  0  0  0  0  0
   14.8770  -12.9865   -0.2076 H   0  0  0  0  0  0  0  0  0  0  0  0
   15.7860  -11.5654    0.2475 H   0  0  0  0  0  0  0  0  0  0  0  0
   14.0944  -11.4247   -0.1668 H   0  0  0  0  0  0  0  0  0  0  0  0
    9.9070  -22.3128    6.7263 H   0  0  0  0  0  0  0  0  0  0  0  0
    6.1196  -19.2704    5.9622 H   0  0  0  0  0  0  0  0  0  0  0  0
  2  3  4  0
  4  5  4  0
  8  9  1  0
  9 10  1  1
 10 11  1  0
  1 12  4  0
 12 13  1  0
  2 13  4  0
  2 14  4  0
  3 15  4  0
  5 17  4  0
  6 18  1  0
 17 18  4  0
  6 19  1  0
  7 19  1  0
 21 22  1  0
  6 22  2  0
 18 23  4  0
 23 24  4  0
  4 24  4  0
 12 25  4  0
  9 26  1  0
 27 28  1  0
 17 29  1  0
 23 30  1  0
  8 31  1  0
 26 31  1  0
 11 32  3  0
  9 33  1  0
  1 33  4  0
 15 34  4  0
 14 34  4  0
 16 35  4  0
 14 35  4  0
 16 36  1  0
  4 36  1  0
 21 37  1  0
 20 37  1  0
  7 37  1  0
 13 38  4  0
 16 38  4  0
 25 39  4  0
 33 39  4  0
 41 42  2  0
 40 42  2  0
 42 27  1  6
 31 42  1  0
  1 43  1  0
  3 44  1  0
  5 45  1  0
  7 46  1  0
  7 47  1  0
  8 48  1  0
  8 49  1  0
 10 50  1  0
 10 51  1  0
 15 52  1  0
 19 53  1  0
 19 54  1  0
 20 55  1  0
 20 56  1  0
 20 57  1  0
 21 58  1  0
 21 59  1  0
 22 60  1  0
 24 61  1  0
 25 62  1  0
 26 63  1  0
 26 64  1  0
 27 65  1  0
 27 66  1  0
 28 67  1  0
 28 68  1  0
 28 69  1  0
 34 70  1  0
 36 71  1  0
M  CHG  2  33   1  34   1
M  END
