7A9E_R4W_A_404
     RDKit          3D

  6  5  0  0  0  0  0  0  0  0999 V2000
   22.3360   30.9540   -8.4030 C   0  0  0  0  0  0  0  0  0  0  0  0
   21.2260   33.7550   -9.0820 C   0  0  0  0  0  0  0  0  0  0  0  0
   19.0860   32.4850   -9.7280 O   0  0  0  0  0  0  0  0  0  0  0  0
   21.1630   31.0060   -9.3160 C   0  0  0  0  0  0  0  0  0  0  0  0
   19.9040   32.2610   -7.4590 O   0  0  0  0  0  0  0  0  0  0  0  0
   20.1840   32.3840   -8.8370 S   0  0  0  0  0  0  0  0  0  0  0  0
  1  4  1  0
  3  6  2  0
  4  6  1  0
  2  6  1  0
  5  6  2  0
M  END
$$$$
