7UYB_OK0_A_303
     RDKit          3D

 50 53  0  0  0  0  0  0  0  0999 V2000
  -20.9827  -15.3166  -10.3565 C   0  0  0  0  0  0  0  0  0  0  0  0
  -20.6587  -16.6214  -10.7365 C   0  0  0  0  0  0  0  0  0  0  0  0
  -20.3902  -16.9277  -12.0819 C   0  0  0  0  0  0  0  0  0  0  0  0
  -20.0423  -18.3501  -12.4816 C   0  0  1  0  0  0  0  0  0  0  0  0
  -19.1235  -19.0244  -11.4471 C   0  0  2  0  0  0  0  0  0  0  0  0
  -18.7239  -20.4490  -11.8955 C   0  0  2  0  0  0  0  0  0  0  0  0
  -21.0279  -20.7102  -12.6154 C   0  0  2  0  0  0  0  0  0  0  0  0
  -21.3103  -19.2003  -12.7292 C   0  0  2  0  0  0  0  0  0  0  0  0
  -20.4428  -15.8955  -13.0377 C   0  0  0  0  0  0  0  0  0  0  0  0
  -21.8401  -10.2114  -10.1840 C   0  0  0  0  0  0  0  0  0  0  0  0
  -23.2695   -8.4494   -9.4854 F   0  0  0  0  0  0  0  0  0  0  0  0
  -21.9659   -8.7347   -9.8467 C   0  0  1  0  0  0  0  0  0  0  0  0
  -21.1045   -8.3886   -8.8227 F   0  0  0  0  0  0  0  0  0  0  0  0
  -21.6386   -7.9391  -10.9324 F   0  0  0  0  0  0  0  0  0  0  0  0
  -22.3102  -11.2586   -9.3313 C   0  0  0  0  0  0  0  0  0  0  0  0
  -23.2899  -10.9214   -7.8675 S   0  0  2  0  0  6  0  0  0  0  0  0
  -24.1393   -9.6928   -8.0237 O   0  0  0  0  0  0  0  0  0  0  0  0
  -22.2425  -10.7245   -6.5051 N   0  0  0  0  0  0  0  0  0  0  0  0
  -24.2237  -12.0702   -7.6061 O   0  0  0  0  0  0  0  0  0  0  0  0
  -22.0290  -12.6130   -9.6817 C   0  0  0  0  0  0  0  0  0  0  0  0
  -22.3925  -13.7269   -8.7745 C   0  0  0  0  0  0  0  0  0  0  0  0
  -22.4261  -15.0234   -9.1220 N   0  0  0  0  0  0  0  0  0  0  0  0
  -22.7527  -15.6839   -8.0264 N   0  0  0  0  0  0  0  0  0  0  0  0
  -22.9103  -14.8193   -7.0349 N   0  0  0  0  0  0  0  0  0  0  0  0
  -22.6889  -13.5861   -7.4690 N   0  0  0  0  0  0  0  0  0  0  0  0
  -21.2662  -10.5494  -11.4220 C   0  0  0  0  0  0  0  0  0  0  0  0
  -21.0593  -11.8723  -11.7837 C   0  0  0  0  0  0  0  0  0  0  0  0
  -21.3991  -12.9095  -10.9157 C   0  0  0  0  0  0  0  0  0  0  0  0
  -21.0515  -14.2945  -11.3153 C   0  0  0  0  0  0  0  0  0  0  0  0
  -20.7674  -14.5910  -12.6563 C   0  0  0  0  0  0  0  0  0  0  0  0
  -19.6233  -20.9995  -12.9263 N   0  0  0  0  0  0  0  0  0  0  0  0
  -21.1791  -15.1021   -9.3130 H   0  0  0  0  0  0  0  0  0  0  0  0
  -20.6172  -17.3921   -9.9770 H   0  0  0  0  0  0  0  0  0  0  0  0
  -19.4729  -18.3243  -13.4393 H   0  0  0  0  0  0  0  0  0  0  0  0
  -19.6473  -19.0940  -10.4690 H   0  0  0  0  0  0  0  0  0  0  0  0
  -18.2079  -18.4111  -11.2963 H   0  0  0  0  0  0  0  0  0  0  0  0
  -18.7005  -21.1218  -11.0084 H   0  0  0  0  0  0  0  0  0  0  0  0
  -17.6954  -20.4187  -12.3149 H   0  0  0  0  0  0  0  0  0  0  0  0
  -21.6855  -21.2591  -13.3243 H   0  0  0  0  0  0  0  0  0  0  0  0
  -21.2724  -21.0666  -11.5885 H   0  0  0  0  0  0  0  0  0  0  0  0
  -21.6971  -18.9721  -13.7467 H   0  0  0  0  0  0  0  0  0  0  0  0
  -22.1147  -18.9430  -12.0067 H   0  0  0  0  0  0  0  0  0  0  0  0
  -20.2314  -16.0970  -14.0798 H   0  0  0  0  0  0  0  0  0  0  0  0
  -22.8187  -10.3277   -5.7295 H   0  0  0  0  0  0  0  0  0  0  0  0
  -21.5334  -10.0012   -6.7571 H   0  0  0  0  0  0  0  0  0  0  0  0
  -22.2411  -15.4505  -10.0565 H   0  0  0  0  0  0  0  0  0  0  0  0
  -20.9582   -9.7834  -12.1223 H   0  0  0  0  0  0  0  0  0  0  0  0
  -20.5886  -12.0876  -12.7360 H   0  0  0  0  0  0  0  0  0  0  0  0
  -20.8086  -13.8131  -13.4090 H   0  0  0  0  0  0  0  0  0  0  0  0
  -19.5002  -22.0389  -12.9418 H   0  0  0  0  0  0  0  0  0  0  0  0
  1  2  2  0
  2  3  1  0
  3  4  1  0
  4  5  1  0
  5  6  1  0
  7  8  1  0
  4  8  1  0
  3  9  2  0
 10 12  1  0
 12 11  1  1
 12 13  1  0
 12 14  1  0
 10 15  2  0
 15 16  1  0
 16 17  2  0
 16 18  1  1
 16 19  2  0
 15 20  1  0
 20 21  1  0
 21 22  1  0
 22 23  1  0
 23 24  2  0
 24 25  1  0
 21 25  2  0
 10 26  1  0
 26 27  2  0
 20 28  2  0
 27 28  1  0
  1 29  1  0
 28 29  1  0
  9 30  1  0
 29 30  2  0
  7 31  1  0
  6 31  1  0
  1 32  1  0
  2 33  1  0
  4 34  1  6
  5 35  1  1
  5 36  1  0
  6 37  1  1
  6 38  1  0
  7 39  1  6
  7 40  1  0
  8 41  1  6
  8 42  1  0
  9 43  1  0
 18 44  1  0
 18 45  1  0
 22 46  1  0
 26 47  1  0
 27 48  1  0
 30 49  1  0
 31 50  1  0
M  END
