7AMC_73B_B_201
     RDKit          3D

 31 34  0  0  0  0  0  0  0  0999 V2000
   37.7500   54.7720   68.6680 C   0  0  0  0  0  0  0  0  0  0  0  0
   39.0800   54.7810   67.9240 C   0  0  1  0  0  0  0  0  0  0  0  0
   40.2860   54.4920   68.8190 C   0  0  0  0  0  0  0  0  0  0  0  0
   41.4580   54.0130   68.0420 C   0  0  1  0  0  0  0  0  0  0  0  0
   42.6610   53.9000   68.9040 N   0  0  0  0  0  0  0  0  0  0  0  0
   43.9510   54.1680   68.3820 C   0  0  0  0  0  0  0  0  0  0  0  0
   44.9640   54.5850   69.2330 C   0  0  0  0  0  0  0  0  0  0  0  0
   46.2090   54.8130   68.6940 C   0  0  0  0  0  0  0  0  0  0  0  0
   46.4650   54.5970   67.3950 C   0  0  0  0  0  0  0  0  0  0  0  0
   48.0850   54.9070   66.7800 Cl  0  0  0  0  0  0  0  0  0  0  0  0
   45.4910   54.1870   66.5490 C   0  0  0  0  0  0  0  0  0  0  0  0
   44.2200   53.9530   67.0500 C   0  0  0  0  0  0  0  0  0  0  0  0
   41.0560   52.6250   67.4950 C   0  0  0  0  0  0  0  0  0  0  0  0
   41.7970   51.4640   67.6090 C   0  0  0  0  0  0  0  0  0  0  0  0
   41.2940   50.2460   67.1410 C   0  0  0  0  0  0  0  0  0  0  0  0
   40.0160   50.1880   66.5990 C   0  0  0  0  0  0  0  0  0  0  0  0
   39.2530   51.3250   66.4820 C   0  0  0  0  0  0  0  0  0  0  0  0
   39.7990   52.5560   66.8930 C   0  0  0  0  0  0  0  0  0  0  0  0
   39.0530   53.8310   66.8040 N   0  0  0  0  0  0  0  0  0  0  0  0
   38.3490   54.2360   65.6190 C   0  0  0  0  0  0  0  0  0  0  0  0
   38.3560   53.3110   64.4010 C   0  0  0  0  0  0  0  0  0  0  0  0
   37.7740   55.2810   65.6370 O   0  0  0  0  0  0  0  0  0  0  0  0
   42.1630   48.9850   67.2000 C   0  0  0  0  0  0  0  0  0  0  0  0
   41.8750   47.9080   66.3210 C   0  0  0  0  0  0  0  0  0  0  0  0
   42.6510   46.7790   66.3100 C   0  0  0  0  0  0  0  0  0  0  0  0
   43.7280   46.7160   67.1940 C   0  0  0  0  0  0  0  0  0  0  0  0
   44.0440   47.7560   68.0190 C   0  0  0  0  0  0  0  0  0  0  0  0
   43.2720   48.8910   68.0120 C   0  0  0  0  0  0  0  0  0  0  0  0
   44.6150   45.4900   67.2500 C   0  0  0  0  0  0  0  0  0  0  0  0
   45.5520   45.4530   68.0760 O   0  0  0  0  0  0  0  0  0  0  0  0
   44.3790   44.5470   66.4730 O   0  0  0  0  0  0  0  0  0  0  0  0
  2  1  1  1
  2  3  1  0
  3  4  1  0
  4  5  1  1
  5  6  1  0
  6  7  2  0
  7  8  1  0
  8  9  2  0
  9 10  1  0
  9 11  1  0
 11 12  2  0
  6 12  1  0
  4 13  1  0
 13 14  1  0
 14 15  2  0
 15 16  1  0
 16 17  2  0
 13 18  2  0
 17 18  1  0
  2 19  1  0
 18 19  1  0
 19 20  1  0
 20 21  1  0
 20 22  2  0
 15 23  1  0
 23 24  2  0
 24 25  1  0
 25 26  2  0
 26 27  1  0
 27 28  2  0
 23 28  1  0
 26 29  1  0
 29 30  2  0
 29 31  1  0
M  END
$$$$
