1LRH_NLA_D_8190
     RDKit          3D

 14 15  0  0  0  0  0  0  0  0999 V2000
   36.5730   58.0680   78.1320 C   0  0  0  0  0  0  0  0  0  0  0  0
   36.4670   58.4150   76.7810 C   0  0  0  0  0  0  0  0  0  0  0  0
   37.5850   58.3010   75.8920 C   0  0  0  0  0  0  0  0  0  0  0  0
   38.7980   57.8140   76.4310 C   0  0  0  0  0  0  0  0  0  0  0  0
   38.9440   57.4580   77.7310 C   0  0  0  0  0  0  0  0  0  0  0  0
   37.8540   57.5630   78.6100 C   0  0  0  0  0  0  0  0  0  0  0  0
   37.9290   57.1890   79.9970 C   0  0  0  0  0  0  0  0  0  0  0  0
   36.8370   57.3360   80.8310 C   0  0  0  0  0  0  0  0  0  0  0  0
   35.5960   57.8100   80.3680 C   0  0  0  0  0  0  0  0  0  0  0  0
   35.4490   58.1880   79.0530 C   0  0  0  0  0  0  0  0  0  0  0  0
   35.1400   58.9890   76.2140 C   0  0  0  0  0  0  0  0  0  0  0  0
   35.4320   59.9670   75.1260 C   0  0  0  0  0  0  0  0  0  0  0  0
   35.6330   61.2430   75.3280 O   0  0  0  0  0  0  0  0  0  0  0  0
   35.5730   59.3500   73.9620 O   0  0  0  0  0  0  0  0  0  0  0  0
  1  2  2  0
  2  3  1  0
  3  4  2  0
  4  5  1  0
  1  6  1  0
  5  6  2  0
  6  7  1  0
  7  8  2  0
  8  9  1  0
  1 10  1  0
  9 10  2  0
  2 11  1  0
 11 12  1  0
 12 13  2  0
 12 14  1  0
M  END
$$$$
1LRH_NLA_C_7190
     RDKit          3D

 14 15  0  0  0  0  0  0  0  0999 V2000
   67.0620   41.4120   23.3770 C   0  0  0  0  0  0  0  0  0  0  0  0
   67.3560   41.0350   24.7090 C   0  0  0  0  0  0  0  0  0  0  0  0
   68.6830   41.0750   25.1790 C   0  0  0  0  0  0  0  0  0  0  0  0
   69.7240   41.4490   24.2940 C   0  0  0  0  0  0  0  0  0  0  0  0
   69.4720   41.8320   23.0220 C   0  0  0  0  0  0  0  0  0  0  0  0
   68.1620   41.8330   22.5090 C   0  0  0  0  0  0  0  0  0  0  0  0
   67.8870   42.1940   21.1380 C   0  0  0  0  0  0  0  0  0  0  0  0
   66.5860   42.1760   20.6710 C   0  0  0  0  0  0  0  0  0  0  0  0
   65.5030   41.7940   21.5090 C   0  0  0  0  0  0  0  0  0  0  0  0
   65.7230   41.4250   22.8310 C   0  0  0  0  0  0  0  0  0  0  0  0
   66.2660   40.6060   25.7450 C   0  0  0  0  0  0  0  0  0  0  0  0
   66.7580   39.6240   26.7270 C   0  0  0  0  0  0  0  0  0  0  0  0
   66.8010   38.3250   26.4730 O   0  0  0  0  0  0  0  0  0  0  0  0
   67.2210   40.1640   27.8410 O   0  0  0  0  0  0  0  0  0  0  0  0
  1  2  2  0
  2  3  1  0
  3  4  2  0
  4  5  1  0
  1  6  1  0
  5  6  2  0
  6  7  1  0
  7  8  2  0
  8  9  1  0
  1 10  1  0
  9 10  2  0
  2 11  1  0
 11 12  1  0
 12 13  2  0
 12 14  1  0
M  END
$$$$
1LRH_NLA_A_5190
     RDKit          3D

 14 15  0  0  0  0  0  0  0  0999 V2000
    9.6520   57.4480   63.6220 C   0  0  0  0  0  0  0  0  0  0  0  0
   10.7730   56.9010   62.9800 C   0  0  0  0  0  0  0  0  0  0  0  0
   10.7900   56.7280   61.5750 C   0  0  0  0  0  0  0  0  0  0  0  0
    9.6730   57.1640   60.8110 C   0  0  0  0  0  0  0  0  0  0  0  0
    8.5930   57.7260   61.4140 C   0  0  0  0  0  0  0  0  0  0  0  0
    8.5280   57.8860   62.8060 C   0  0  0  0  0  0  0  0  0  0  0  0
    7.3710   58.4550   63.4740 C   0  0  0  0  0  0  0  0  0  0  0  0
    7.3460   58.5890   64.8440 C   0  0  0  0  0  0  0  0  0  0  0  0
    8.4520   58.1850   65.6290 C   0  0  0  0  0  0  0  0  0  0  0  0
    9.5930   57.6390   65.0590 C   0  0  0  0  0  0  0  0  0  0  0  0
   12.0190   56.4100   63.8130 C   0  0  0  0  0  0  0  0  0  0  0  0
   12.5400   55.1320   63.2350 C   0  0  0  0  0  0  0  0  0  0  0  0
   12.1150   53.9180   63.4710 O   0  0  0  0  0  0  0  0  0  0  0  0
   13.4750   55.3890   62.3510 O   0  0  0  0  0  0  0  0  0  0  0  0
  1  2  2  0
  2  3  1  0
  3  4  2  0
  4  5  1  0
  1  6  1  0
  5  6  2  0
  6  7  1  0
  7  8  2  0
  8  9  1  0
  1 10  1  0
  9 10  2  0
  2 11  1  0
 11 12  1  0
 12 13  2  0
 12 14  1  0
M  END
$$$$
1LRH_NLA_B_6190
     RDKit          3D

 14 15  0  0  0  0  0  0  0  0999 V2000
   44.7630   42.1240   44.9970 C   0  0  0  0  0  0  0  0  0  0  0  0
   46.0040   42.7210   45.2320 C   0  0  0  0  0  0  0  0  0  0  0  0
   46.5050   42.8330   46.5570 C   0  0  0  0  0  0  0  0  0  0  0  0
   45.7340   42.3580   47.6340 C   0  0  0  0  0  0  0  0  0  0  0  0
   44.5320   41.7870   47.4420 C   0  0  0  0  0  0  0  0  0  0  0  0
   44.0000   41.6510   46.1490 C   0  0  0  0  0  0  0  0  0  0  0  0
   42.7200   41.0400   45.9040 C   0  0  0  0  0  0  0  0  0  0  0  0
   42.2350   40.9380   44.6080 C   0  0  0  0  0  0  0  0  0  0  0  0
   42.9750   41.3810   43.4940 C   0  0  0  0  0  0  0  0  0  0  0  0
   44.2080   41.9760   43.6610 C   0  0  0  0  0  0  0  0  0  0  0  0
   46.8970   43.2830   44.0800 C   0  0  0  0  0  0  0  0  0  0  0  0
   47.6540   44.4750   44.5680 C   0  0  0  0  0  0  0  0  0  0  0  0
   47.2770   45.7310   44.5300 O   0  0  0  0  0  0  0  0  0  0  0  0
   48.7690   44.0640   45.1660 O   0  0  0  0  0  0  0  0  0  0  0  0
  1  2  2  0
  2  3  1  0
  3  4  2  0
  4  5  1  0
  1  6  1  0
  5  6  2  0
  6  7  1  0
  7  8  2  0
  8  9  1  0
  1 10  1  0
  9 10  2  0
  2 11  1  0
 11 12  1  0
 12 13  2  0
 12 14  1  0
M  END
$$$$
