7KLX_WOV_A_401
     RDKit          3D

 17 18  0  0  0  0  0  0  0  0999 V2000
   46.3906   12.7833    3.5514 C   0  0  0  0  0  0  0  0  0  0  0  0
   47.5423   11.9960    3.5810 C   0  0  0  0  0  0  0  0  0  0  0  0
   48.5803   12.9103    3.6333 C   0  0  0  0  0  0  0  0  0  0  0  0
   48.0726   14.1877    3.6348 C   0  0  0  0  0  0  0  0  0  0  0  0
   48.8722   15.4389    3.6837 C   0  0  0  0  0  0  0  0  0  0  0  0
   47.0310   16.6912    6.5564 O   0  0  0  0  0  0  0  0  0  0  0  0
   45.8064   15.1669    3.5675 C   0  0  0  0  0  0  0  0  0  0  0  0
   45.5739   15.9816    4.6570 C   0  0  0  0  0  0  0  0  0  0  0  0
   44.6639   17.0193    4.5981 C   0  0  0  0  0  0  0  0  0  0  0  0
   46.3177   14.5161    6.3120 O   0  0  0  0  0  0  0  0  0  0  0  0
   43.9855   17.2196    3.4019 C   0  0  0  0  0  0  0  0  0  0  0  0
   44.2087   16.4059    2.2924 C   0  0  0  0  0  0  0  0  0  0  0  0
   45.1291   15.3598    2.3588 C   0  0  0  0  0  0  0  0  0  0  0  0
   46.3256   15.7071    5.8771 C   0  0  0  0  0  0  0  0  0  0  0  0
   43.0449   18.2604    3.2772 O   0  0  0  0  0  0  0  0  0  0  0  0
   46.7338   14.0878    3.5844 N   0  0  0  0  0  0  0  0  0  0  0  0
   44.9826   12.2526    3.4916 C   0  0  0  0  0  0  0  0  0  0  0  0
  1  2  2  0
  2  3  1  0
  3  4  2  0
  5  4  1  6
  7  8  2  0
  8  9  1  0
  9 11  2  0
 11 12  1  0
  7 13  1  0
 12 13  2  0
 10 14  2  0
  6 14  1  0
  8 14  1  0
 11 15  1  0
  4 16  1  0
  7 16  1  0
  1 16  1  0
 17  1  1  6
M  END
$$$$
