7ZTL_BCN_A_506
     RDKit          3D

 11 10  0  0  0  0  0  0  0  0999 V2000
  -38.5209   29.4756    8.4231 N   0  0  0  0  0  0  0  0  0  0  0  0
  -38.2987   28.3152    9.2880 C   0  0  0  0  0  0  0  0  0  0  0  0
  -39.5918   27.9079    9.9574 C   0  0  0  0  0  0  0  0  0  0  0  0
  -40.5511   28.7228    9.9917 O   0  0  0  0  0  0  0  0  0  0  0  0
  -39.6561   26.7361   10.3959 O   0  0  0  0  0  0  0  0  0  0  0  0
  -37.2420   30.1171    8.1034 C   0  0  0  0  0  0  0  0  0  0  0  0
  -37.6097   31.3739    7.3187 C   0  0  0  0  0  0  0  0  0  0  0  0
  -37.6581   32.5153    8.1970 O   0  0  0  0  0  0  0  0  0  0  0  0
  -39.2369   29.0747    7.1943 C   0  0  0  0  0  0  0  0  0  0  0  0
  -40.6940   28.7852    7.5453 C   0  0  0  0  0  0  0  0  0  0  0  0
  -41.5280   29.9043    7.1895 O   0  0  0  0  0  0  0  0  0  0  0  0
  1  2  1  0
  2  3  1  0
  3  4  2  0
  3  5  1  0
  1  6  1  0
  6  7  1  0
  7  8  1  0
  1  9  1  0
  9 10  1  0
 10 11  1  0
M  END
