1XM6_5RM_A_1003
     RDKit          3D

 19 20  0  0  0  0  0  0  0  0999 V2000
   83.3524    0.9805   13.3889 O   0  0  0  0  0  0  0  0  0  0  0  0
   84.0561    1.2610   12.3657 C   0  0  0  0  0  0  0  0  0  0  0  0
   84.6443    0.3262   11.5280 O   0  0  0  0  0  0  0  0  0  0  0  0
   84.3604    2.5727   11.9055 N   0  0  0  0  0  0  0  0  0  0  0  0
   84.9376    2.3797   10.5853 C   0  0  0  0  0  0  0  0  0  0  0  0
   85.5275    1.0228   10.6724 C   0  0  2  0  0  0  0  0  0  0  0  0
   85.6134    0.3479    9.3164 C   0  0  0  0  0  0  0  0  0  0  0  0
   86.8815    0.9524   11.2682 C   0  0  0  0  0  0  0  0  0  0  0  0
   87.9883    1.4396   10.6075 C   0  0  0  0  0  0  0  0  0  0  0  0
   89.2240    1.3475   11.2060 C   0  0  0  0  0  0  0  0  0  0  0  0
   89.3559    0.7779   12.4454 C   0  0  0  0  0  0  0  0  0  0  0  0
   90.6019    0.6876   13.0457 O   0  0  0  0  0  0  0  0  0  0  0  0
   91.8197    0.9904   12.4020 C   0  0  0  0  0  0  0  0  0  0  0  0
   88.2550    0.2668   13.1576 C   0  0  0  0  0  0  0  0  0  0  0  0
   87.0430    0.3837   12.5161 C   0  0  0  0  0  0  0  0  0  0  0  0
   88.5035   -0.2699   14.3583 O   0  0  0  0  0  0  0  0  0  0  0  0
   87.7084   -0.8020   15.3541 C   0  0  0  0  0  0  0  0  0  0  0  0
   88.4331   -1.0723   16.6409 C   0  0  0  0  0  0  0  0  0  0  0  0
   88.3540    0.2184   17.4653 C   0  0  0  0  0  0  0  0  0  0  0  0
  1  2  2  0
  2  3  1  0
  2  4  1  0
  5  4  1  6
  3  6  1  0
  5  6  1  0
  7  6  1  6
  6  8  1  1
  8  9  2  0
  9 10  1  0
 10 11  2  0
 11 12  1  0
 13 12  1  1
 11 14  1  0
  8 15  1  0
 14 15  2  0
 14 16  1  0
 17 16  1  6
 17 18  1  0
 18 19  1  1
M  END
$$$$
