
     RDKit          3D

 10 10  0  0  0  0  0  0  0  0999 V2000
   11.0440  -10.5914   24.0745 C   0  0  0  0  0  0  0  0  0  0  0  0
   12.0823   -8.1063   24.6892 Cl  0  0  0  0  0  0  0  0  0  0  0  0
   11.9268   -9.5753   23.8141 C   0  0  0  0  0  0  0  0  0  0  0  0
   11.2014  -11.6567   23.1384 C   0  0  0  0  0  0  0  0  0  0  0  0
   12.9287   -9.8713   22.4842 S   0  0  0  0  0  0  0  0  0  0  0  0
   12.1968  -11.3965   22.2127 C   0  0  0  0  0  0  0  0  0  0  0  0
   12.8294  -12.3201   20.8470 S   0  0  0  0  0  6  0  0  0  0  0  0
   12.5764  -11.5379   19.6612 O   0  0  0  0  0  0  0  0  0  0  0  0
   14.1388  -12.7890   21.2311 O   0  0  0  0  0  0  0  0  0  0  0  0
   11.8767  -13.7003   20.6953 N   0  0  0  0  0  0  0  0  0  0  0  0
  1  3  4  0
  2  3  1  0
  1  4  4  0
  3  5  4  0
  4  6  4  0
  5  6  4  0
  6  7  1  0
  7  8  2  0
  7  9  2  0
  7 10  1  0
M  END
