8CSD_C5P_A_501
     RDKit          3D

 35 36  0  0  0  0  0  0  0  0999 V2000
    4.5220    7.9345    0.0989 O   0  0  0  0  0  0  0  0  0  0  0  0
    5.5882    7.6498    1.3809 P   0  0  1  0  0  5  0  0  0  0  0  0
    6.6170    8.7579    1.4214 O   0  0  0  0  0  0  0  0  0  0  0  0
    4.7164    7.6299    2.8325 O   0  0  0  0  0  0  0  0  0  0  0  0
    6.3577    6.1492    1.1335 O   0  0  0  0  0  0  0  0  0  0  0  0
    7.0991    5.8305    2.2884 C   0  0  0  0  0  0  0  0  0  0  0  0
    8.2131    6.8648    2.4910 C   0  0  1  0  0  0  0  0  0  0  0  0
    8.8163    6.6621    3.7553 O   0  0  0  0  0  0  0  0  0  0  0  0
    9.2819    6.7869    1.3852 C   0  0  1  0  0  0  0  0  0  0  0  0
    9.5607    8.0719    0.8887 O   0  0  0  0  0  0  0  0  0  0  0  0
   10.4748    6.2196    2.1182 C   0  0  1  0  0  0  0  0  0  0  0  0
   11.7113    6.6745    1.6187 O   0  0  0  0  0  0  0  0  0  0  0  0
   10.2131    6.6328    3.5623 C   0  0  2  0  0  0  0  0  0  0  0  0
   10.8563    5.6923    4.5035 N   0  0  0  0  0  4  0  0  0  0  0  0
   10.6290    5.7865    5.8551 C   0  0  0  0  0  0  0  0  0  0  0  0
   11.2502    4.9379    6.7154 N   0  0  0  0  0  0  0  0  0  0  0  0
   12.1148    3.9893    6.2761 C   0  0  0  0  0  0  0  0  0  0  0  0
   12.3826    3.8840    4.9133 C   0  0  0  0  0  0  0  0  0  0  0  0
   11.7425    4.7575    4.0374 C   0  0  0  0  0  0  0  0  0  0  0  0
    9.8469    6.6593    6.3197 O   0  0  0  0  0  0  0  0  0  0  0  0
   12.7475    3.1155    7.2112 N   0  0  0  0  0  0  0  0  0  0  0  0
    3.9099    7.1559    0.1047 H   0  0  0  0  0  0  0  0  0  0  0  0
    4.2442    8.5003    2.8556 H   0  0  0  0  0  0  0  0  0  0  0  0
    6.4485    5.8317    3.1929 H   0  0  0  0  0  0  0  0  0  0  0  0
    7.5779    4.8304    2.1856 H   0  0  0  0  0  0  0  0  0  0  0  0
    7.7392    7.8720    2.4904 H   0  0  0  0  0  0  0  0  0  0  0  0
    8.9954    6.1101    0.5452 H   0  0  0  0  0  0  0  0  0  0  0  0
    8.8198    8.3007    0.2687 H   0  0  0  0  0  0  0  0  0  0  0  0
   10.4469    5.1098    2.0362 H   0  0  0  0  0  0  0  0  0  0  0  0
   11.8069    7.6381    1.8358 H   0  0  0  0  0  0  0  0  0  0  0  0
   10.5800    7.6692    3.7413 H   0  0  0  0  0  0  0  0  0  0  0  0
   13.0768    3.1434    4.5363 H   0  0  0  0  0  0  0  0  0  0  0  0
   11.9648    4.6808    2.9810 H   0  0  0  0  0  0  0  0  0  0  0  0
   12.5448    3.2019    8.2318 H   0  0  0  0  0  0  0  0  0  0  0  0
   13.4181    2.3813    6.8916 H   0  0  0  0  0  0  0  0  0  0  0  0
  2  1  1  6
  2  3  2  0
  2  4  1  0
  2  5  1  0
  5  6  1  0
  7  6  1  0
  7  8  1  0
  7  9  1  0
  9 10  1  0
  9 11  1  0
 11 12  1  0
  8 13  1  0
 11 13  1  0
 13 14  1  0
 14 15  4  0
 15 16  4  0
 16 17  4  0
 17 18  4  0
 14 19  4  0
 18 19  4  0
 15 20  2  0
 17 21  1  0
  1 22  1  0
  4 23  1  0
  6 24  1  0
  6 25  1  0
  7 26  1  1
  9 27  1  6
 10 28  1  0
 11 29  1  1
 12 30  1  0
 13 31  1  6
 18 32  1  0
 19 33  1  0
 21 34  1  0
 21 35  1  0
M  CHG  1  14   1
M  END
