7KB1_WBJ_A_501
     RDKit          3D

 37 37  0  0  0  0  0  0  0  0999 V2000
    2.9088   -4.6093   35.1115 C   0  0  1  0  0  0  0  0  0  0  0  0
    1.4391   -1.7272   39.9340 C   0  0  1  0  0  0  0  0  0  0  0  0
    1.1384   -6.7169   42.0328 C   0  0  0  0  0  0  0  0  0  0  0  0
    3.2889   -5.4605   43.9689 C   0  0  0  0  0  0  0  0  0  0  0  0
    2.6830   -4.8560   42.9481 C   0  0  0  0  0  0  0  0  0  0  0  0
    2.0809   -5.6013   41.8111 C   0  0  0  0  0  0  0  0  0  0  0  0
    3.2072   -4.1762   40.1473 C   0  0  1  0  0  0  0  0  0  0  0  0
    2.7261   -3.6564   38.8117 C   0  0  0  0  0  0  0  0  0  0  0  0
    3.0543   -4.3675   37.6373 C   0  0  0  0  0  0  0  0  0  0  0  0
    2.5813   -3.9036   36.3927 C   0  0  0  0  0  0  0  0  0  0  0  0
    1.4471   -2.1044   37.4535 C   0  0  0  0  0  0  0  0  0  0  0  0
    1.8835   -2.5187   38.7197 C   0  0  0  0  0  0  0  0  0  0  0  0
    2.3326   -5.2635   40.5791 N   0  0  0  0  0  0  0  0  0  0  0  0
    1.8005   -2.7941   36.3417 N   0  0  0  0  0  0  0  0  0  0  0  0
    3.8384   -5.5223   37.7288 O   0  0  0  0  0  0  0  0  0  0  0  0
    2.1622   -2.0875   41.0918 O   0  0  0  0  0  0  0  0  0  0  0  0
   -0.2593   -2.0320   42.4806 O   0  0  0  0  0  0  0  0  0  0  0  0
    1.4028    0.1787   42.5358 O   0  0  0  0  0  0  0  0  0  0  0  0
    2.0437   -2.0632   43.7082 O   0  0  0  0  0  0  0  0  0  0  0  0
    0.0832   -6.5597   42.9275 O   0  0  0  0  0  0  0  0  0  0  0  0
    1.2974   -7.8234   41.4504 O   0  0  0  0  0  0  0  0  0  0  0  0
    1.3523   -1.5128   42.4817 P   0  0  2  0  0  5  0  0  0  0  0  0
    2.6204   -3.9864   34.2381 H   0  0  0  0  0  0  0  0  0  0  0  0
    4.0003   -4.8045   35.0548 H   0  0  0  0  0  0  0  0  0  0  0  0
    2.3522   -5.5684   35.0550 H   0  0  0  0  0  0  0  0  0  0  0  0
    1.6310   -0.6535   39.7292 H   0  0  0  0  0  0  0  0  0  0  0  0
    0.3386   -1.7858   40.0953 H   0  0  0  0  0  0  0  0  0  0  0  0
    3.7307   -4.8686   44.7598 H   0  0  0  0  0  0  0  0  0  0  0  0
    3.3848   -6.5370   44.0174 H   0  0  0  0  0  0  0  0  0  0  0  0
    2.6853   -3.7737   42.9294 H   0  0  0  0  0  0  0  0  0  0  0  0
    4.2537   -4.5430   40.0724 H   0  0  0  0  0  0  0  0  0  0  0  0
    3.2101   -3.3665   40.9055 H   0  0  0  0  0  0  0  0  0  0  0  0
    0.8127   -1.2339   37.3473 H   0  0  0  0  0  0  0  0  0  0  0  0
    4.2068   -6.0079   36.9212 H   0  0  0  0  0  0  0  0  0  0  0  0
   -0.2425   -2.9090   42.0205 H   0  0  0  0  0  0  0  0  0  0  0  0
    0.7665    0.4277   43.2526 H   0  0  0  0  0  0  0  0  0  0  0  0
   -0.4755   -7.3533   43.2176 H   0  0  0  0  0  0  0  0  0  0  0  0
  4  5  2  0
  5  6  1  0
  3  6  1  0
  7  8  1  0
  8  9  2  0
  1 10  1  0
  9 10  1  0
 11 12  2  0
  2 12  1  0
  8 12  1  0
  7 13  1  0
  6 13  2  0
 11 14  1  0
 10 14  2  0
  9 15  1  0
  2 16  1  0
  3 20  1  0
  3 21  2  0
 19 22  2  0
 22 16  1  6
 17 22  1  0
 18 22  1  0
  1 23  1  6
  1 24  1  0
  1 25  1  0
  2 26  1  6
  2 27  1  0
  4 28  1  0
  4 29  1  0
  5 30  1  0
  7 31  1  6
  7 32  1  0
 11 33  1  0
 15 34  1  0
 17 35  1  0
 18 36  1  0
 20 37  1  0
M  END
