8D19_GSH_A_501
     RDKit          3D

 20 19  0  0  0  0  0  0  0  0999 V2000
   28.1430   27.5410   31.2940 N   0  0  0  0  0  0  0  0  0  0  0  0
   27.6570   28.5840   30.3480 C   0  0  2  0  0  0  0  0  0  0  0  0
   28.6990   28.7890   29.2440 C   0  0  0  0  0  0  0  0  0  0  0  0
   28.2870   29.0930   28.1180 O   0  0  0  0  0  0  0  0  0  0  0  0
   29.8910   28.6670   29.5640 O   0  0  0  0  0  0  0  0  0  0  0  0
   27.4310   29.9110   31.0780 C   0  0  0  0  0  0  0  0  0  0  0  0
   26.1530   29.9390   31.9050 C   0  0  0  0  0  0  0  0  0  0  0  0
   24.9250   30.3200   31.1020 C   0  0  0  0  0  0  0  0  0  0  0  0
   24.9680   31.1490   30.1980 O   0  0  0  0  0  0  0  0  0  0  0  0
   23.7890   29.7240   31.4630 N   0  0  0  0  0  0  0  0  0  0  0  0
   22.5090   29.9780   30.8220 C   0  0  2  0  0  0  0  0  0  0  0  0
   21.8210   31.2640   31.2840 C   0  0  0  0  0  0  0  0  0  0  0  0
   20.8090   31.6450   30.7020 O   0  0  0  0  0  0  0  0  0  0  0  0
   21.5610   28.8070   31.0160 C   0  0  0  0  0  0  0  0  0  0  0  0
   22.1140   27.2800   30.2140 S   0  0  0  0  0  0  0  0  0  0  0  0
   22.3650   31.9150   32.3150 N   0  0  0  0  0  0  0  0  0  0  0  0
   21.6880   33.0260   32.9530 C   0  0  0  0  0  0  0  0  0  0  0  0
   22.1550   34.3970   32.4650 C   0  0  0  0  0  0  0  0  0  0  0  0
   22.7400   34.4640   31.3670 O   0  0  0  0  0  0  0  0  0  0  0  0
   21.8950   35.3700   33.2040 O   0  0  0  0  0  0  0  0  0  0  0  0
  2  1  1  1
  2  3  1  0
  3  4  2  0
  3  5  1  0
  2  6  1  0
  6  7  1  0
  7  8  1  0
  8  9  2  0
  8 10  1  0
 10 11  1  0
 11 12  1  0
 12 13  2  0
 11 14  1  1
 14 15  1  0
 12 16  1  0
 16 17  1  0
 17 18  1  0
 18 19  2  0
 18 20  1  0
M  END
$$$$
