7RWS_4UR_A_401
     RDKit          3D

 45 51  0  0  0  0  0  0  0  0999 V2000
   18.8981   48.9078   37.8603 C   0  0  2  0  0  0  0  0  0  0  0  0
   18.3582   48.5354   36.5408 C   0  0  0  0  0  0  0  0  0  0  0  0
   15.2468   49.7058   38.8149 C   0  0  1  0  0  0  0  0  0  0  0  0
    9.5115   50.4665   35.0043 N   0  0  0  0  0  0  0  0  0  0  0  0
   10.8333   50.9931   34.9951 C   0  0  0  0  0  0  0  0  0  0  0  0
   11.5212   50.9459   36.1538 N   0  0  0  0  0  0  0  0  0  0  0  0
   12.7930   51.4265   36.2394 C   0  0  0  0  0  0  0  0  0  0  0  0
   13.3936   51.9729   35.1231 C   0  0  0  0  0  0  0  0  0  0  0  0
   14.6354   52.3614   35.4991 N   0  0  0  0  0  0  0  0  0  0  0  0
   14.8142   52.0680   36.8183 C   0  0  0  0  0  0  0  0  0  0  0  0
   13.6776   51.4981   37.2504 N   0  0  0  0  0  0  0  0  0  0  0  0
   13.3601   51.0012   38.5940 C   0  0  2  0  0  0  0  0  0  0  0  0
   14.1956   51.5829   39.5077 O   0  0  0  0  0  0  0  0  0  0  0  0
   15.0881   50.6474   39.9986 C   0  0  2  0  0  0  0  0  0  0  0  0
   16.4189   51.2555   40.3158 C   0  0  0  0  0  0  0  0  0  0  0  0
   16.9191   50.9930   41.5619 O   0  0  0  0  0  0  0  0  0  0  0  0
   18.5337   50.4678   41.4733 P   0  0  1  0  0  5  0  0  0  0  0  0
   19.2645   51.3304   42.5138 O   0  0  0  0  0  0  0  0  0  0  0  0
   18.5054   48.9291   42.1314 O   0  0  0  0  0  0  0  0  0  0  0  0
   19.1482   50.7561   40.0510 O   0  0  0  0  0  0  0  0  0  0  0  0
   20.0843   50.1381   39.3642 C   0  0  2  0  0  0  0  0  0  0  0  0
   19.7192   50.2006   37.8710 C   0  0  2  0  0  0  0  0  0  0  0  0
   19.0120   51.3152   37.5294 O   0  0  0  0  0  0  0  0  0  0  0  0
   16.9518   48.6854   36.5412 O   0  0  0  0  0  0  0  0  0  0  0  0
   16.2270   47.7154   37.6954 P   0  0  2  0  0  5  0  0  0  0  0  0
   17.0839   46.5003   37.9607 O   0  0  0  0  0  0  0  0  0  0  0  0
   14.7527   47.1466   37.0684 O   0  0  0  0  0  0  0  0  0  0  0  0
   15.8699   48.5344   39.1336 O   0  0  0  0  0  0  0  0  0  0  0  0
   13.7497   49.5163   38.5344 C   0  0  2  0  0  0  0  0  0  0  0  0
   13.1126   48.8950   39.5911 O   0  0  0  0  0  0  0  0  0  0  0  0
   19.9207   48.0454   38.3218 O   0  0  0  0  0  0  0  0  0  0  0  0
   20.3365   48.6865   39.5092 C   0  0  1  0  0  0  0  0  0  0  0  0
   21.7200   48.3717   39.8217 N   0  0  0  0  0  0  0  0  0  0  0  0
   22.8092   48.6042   39.0390 C   0  0  0  0  0  0  0  0  0  0  0  0
   23.9218   48.1807   39.6551 N   0  0  0  0  0  0  0  0  0  0  0  0
   23.5750   47.6730   40.8330 C   0  0  0  0  0  0  0  0  0  0  0  0
   24.3243   47.1112   41.8401 C   0  0  0  0  0  0  0  0  0  0  0  0
   25.7425   47.0054   41.6960 N   0  0  0  0  0  0  0  0  0  0  0  0
   23.6813   46.6766   42.9388 N   0  0  0  0  0  0  0  0  0  0  0  0
   22.3443   46.8037   43.0162 C   0  0  0  0  0  0  0  0  0  0  0  0
   21.5937   47.3503   42.0420 N   0  0  0  0  0  0  0  0  0  0  0  0
   22.2104   47.7920   40.9348 C   0  0  0  0  0  0  0  0  0  0  0  0
   12.6703   52.0110   33.9465 C   0  0  0  0  0  0  0  0  0  0  0  0
   13.2008   52.5084   32.9068 O   0  0  0  0  0  0  0  0  0  0  0  0
   11.4058   51.5239   33.8948 N   0  0  0  0  0  0  0  0  0  0  0  0
  1  2  1  0
  4  5  1  0
  5  6  2  0
  6  7  1  0
  7  8  2  0
  8  9  1  0
  9 10  2  0
  7 11  1  0
 10 11  1  0
 12 11  1  6
 12 13  1  0
  3 14  1  0
 14 13  1  6
 14 15  1  0
 15 16  1  6
 16 17  1  0
 17 18  2  0
 17 19  1  1
 17 20  1  0
 21 20  1  1
  1 22  1  0
 21 22  1  0
 22 23  1  1
  2 24  1  6
 24 25  1  0
 25 26  2  0
 25 27  1  6
 25 28  1  0
  3 28  1  1
  3 29  1  0
 12 29  1  0
 29 30  1  1
  1 31  1  6
 31 32  1  0
 21 32  1  0
 32 33  1  6
 33 34  1  0
 34 35  2  0
 35 36  1  0
 36 37  2  0
 37 38  1  0
 37 39  1  0
 39 40  2  0
 40 41  1  0
 36 42  1  0
 33 42  1  0
 41 42  2  0
  8 43  1  0
 43 44  2  0
  5 45  1  0
 43 45  1  0
M  END
$$$$
