
     RDKit          3D

 24 26  0  0  0  0  0  0  0  0999 V2000
    3.7333   -1.3256  -32.4079 C   0  0  0  0  0  0  0  0  0  0  0  0
    5.0691   -3.2934  -32.8797 C   0  0  0  0  0  0  0  0  0  0  0  0
    6.2304   -2.5751  -32.5927 C   0  0  0  0  0  0  0  0  0  0  0  0
    4.9038   -0.6102  -32.1213 C   0  0  0  0  0  0  0  0  0  0  0  0
    6.6082    0.7103  -29.5968 C   0  0  0  0  0  0  0  0  0  0  0  0
    7.5737    0.1495  -28.5743 C   0  0  0  0  0  0  0  0  0  0  0  0
    2.0388   -0.2521  -31.0929 C   0  0  0  0  0  0  0  0  0  0  0  0
   -0.1424    0.5607  -31.8143 C   0  0  0  0  0  0  0  0  0  0  0  0
    0.2177    0.1340  -33.1917 C   0  0  0  0  0  0  0  0  0  0  0  0
   -0.6944    0.3397  -34.2373 C   0  0  0  0  0  0  0  0  0  0  0  0
   -0.3641   -0.0402  -35.5365 C   0  0  0  0  0  0  0  0  0  0  0  0
    0.8754   -0.6206  -35.7927 C   0  0  0  0  0  0  0  0  0  0  0  0
    1.7848   -0.8268  -34.7505 C   0  0  0  0  0  0  0  0  0  0  0  0
    1.4655   -0.4586  -33.4336 C   0  0  0  0  0  0  0  0  0  0  0  0
    2.4121   -0.6705  -32.3160 C   0  0  0  0  0  0  0  0  0  0  0  0
    0.5386    0.7584  -29.4605 C   0  0  0  0  0  0  0  0  0  0  0  0
    3.8236   -2.6726  -32.7818 C   0  0  0  0  0  0  0  0  0  0  0  0
    6.1470   -1.2379  -32.1990 C   0  0  0  0  0  0  0  0  0  0  0  0
    0.8225    0.3503  -30.8286 N   0  0  0  0  0  0  0  0  0  0  0  0
    7.3491   -0.5427  -31.9005 N   0  0  0  0  0  0  0  0  0  0  0  0
   -1.2422    1.0661  -31.6037 O   0  0  0  0  0  0  0  0  0  0  0  0
    8.7275    1.3099  -30.9911 O   0  0  0  0  0  0  0  0  0  0  0  0
    6.4825    1.8750  -31.9769 O   0  0  0  0  0  0  0  0  0  0  0  0
    7.3318    0.9891  -31.2130 S   0  0  0  0  0  6  0  0  0  0  0  0
  2  3  4  0
  1  4  4  0
  5  6  1  0
  8  9  4  0
  9 10  4  0
 10 11  4  0
 11 12  4  0
 12 13  4  0
  9 14  4  0
 13 14  4  0
  7 15  4  0
  1 15  1  0
 14 15  4  0
  1 17  4  0
  2 17  4  0
  4 18  4  0
  3 18  4  0
 16 19  1  0
  7 19  4  0
  8 19  4  0
 18 20  1  0
  8 21  2  0
 22 24  2  0
  5 24  1  0
 23 24  2  0
 20 24  1  0
M  END
