7UMV_NUU_A_501
     RDKit          3D

 41 43  0  0  0  0  0  0  0  0999 V2000
   -0.7377    1.1917   -3.3110 C   0  0  0  0  0  0  0  0  0  0  0  0
   -3.1612    1.3718   -2.6478 C   0  0  0  0  0  0  0  0  0  0  0  0
   -5.5334    1.2579   -2.5333 C   0  0  0  0  0  0  0  0  0  0  0  0
   -3.0465    0.2177   -1.8477 C   0  0  0  0  0  0  0  0  0  0  0  0
   -1.7029   -0.3073   -1.5171 C   0  0  0  0  0  0  0  0  0  0  0  0
    3.2837   -0.6063    3.7558 C   0  0  0  0  0  0  0  0  0  0  0  0
    2.6037   -1.5807    2.7722 C   0  0  0  0  0  0  0  0  0  0  0  0
    3.4785   -1.7225    1.5120 C   0  0  0  0  0  0  0  0  0  0  0  0
    2.4925   -2.9604    3.4585 C   0  0  0  0  0  0  0  0  0  0  0  0
    1.2430   -1.0088    2.3628 C   0  0  0  0  0  0  0  0  0  0  0  0
   -0.0450   -1.7976    2.4042 C   0  0  0  0  0  0  0  0  0  0  0  0
   -0.3128   -1.7417   -0.2471 C   0  0  0  0  0  0  0  0  0  0  0  0
    0.6786   -0.3257   -1.8596 C   0  0  0  0  0  0  0  0  0  0  0  0
   -0.5759    0.1994   -2.1862 C   0  0  0  0  0  0  0  0  0  0  0  0
   -1.9295    2.1305   -3.0672 C   0  0  0  0  0  0  0  0  0  0  0  0
   -5.4649    0.1077   -1.7453 C   0  0  0  0  0  0  0  0  0  0  0  0
   -4.2169   -0.4123   -1.3982 C   0  0  0  0  0  0  0  0  0  0  0  0
    0.7857   -1.2774   -0.8974 N   0  0  0  0  0  0  0  0  0  0  0  0
   -4.3924    1.8646   -2.9548 N   0  0  0  0  0  0  0  0  0  0  0  0
   -1.5441   -1.2635   -0.5627 N   0  0  0  0  0  0  0  0  0  0  0  0
    1.1934    0.1362    1.9343 O   0  0  0  0  0  0  0  0  0  0  0  0
   -0.1378   -2.9910    1.0231 S   0  0  0  0  0  0  0  0  0  0  0  0
   -0.8991    0.6311   -4.2570 H   0  0  0  0  0  0  0  0  0  0  0  0
    0.1840    1.8030   -3.4240 H   0  0  0  0  0  0  0  0  0  0  0  0
   -6.4948    1.6741   -2.8029 H   0  0  0  0  0  0  0  0  0  0  0  0
    2.6530   -0.4651    4.6604 H   0  0  0  0  0  0  0  0  0  0  0  0
    4.2739   -0.9965    4.0768 H   0  0  0  0  0  0  0  0  0  0  0  0
    3.4455    0.3874    3.2845 H   0  0  0  0  0  0  0  0  0  0  0  0
    4.4864   -2.1114    1.7737 H   0  0  0  0  0  0  0  0  0  0  0  0
    3.0100   -2.4260    0.7903 H   0  0  0  0  0  0  0  0  0  0  0  0
    3.6075   -0.7406    1.0068 H   0  0  0  0  0  0  0  0  0  0  0  0
    1.8890   -2.8918    4.3888 H   0  0  0  0  0  0  0  0  0  0  0  0
    3.4998   -3.3382    3.7386 H   0  0  0  0  0  0  0  0  0  0  0  0
    2.0324   -3.7106    2.7826 H   0  0  0  0  0  0  0  0  0  0  0  0
   -0.1374   -2.3431    3.3643 H   0  0  0  0  0  0  0  0  0  0  0  0
   -0.9166   -1.1093    2.3498 H   0  0  0  0  0  0  0  0  0  0  0  0
    1.5689    0.0157   -2.3715 H   0  0  0  0  0  0  0  0  0  0  0  0
   -1.6696    2.8536   -2.2642 H   0  0  0  0  0  0  0  0  0  0  0  0
   -2.1362    2.7049   -3.9960 H   0  0  0  0  0  0  0  0  0  0  0  0
   -6.3716   -0.3753   -1.4049 H   0  0  0  0  0  0  0  0  0  0  0  0
   -4.1680   -1.3055   -0.7881 H   0  0  0  0  0  0  0  0  0  0  0  0
  2  4  2  0
  4  5  1  0
  6  7  1  0
  7  8  1  0
  7  9  1  0
  7 10  1  0
 10 11  1  0
  1 14  1  0
  5 14  2  0
 13 14  1  0
  2 15  1  0
  1 15  1  0
  3 16  1  0
 16 17  2  0
  4 17  1  0
 13 18  2  0
 12 18  1  0
  3 19  2  0
  2 19  1  0
  5 20  1  0
 12 20  2  0
 10 21  2  0
 12 22  1  0
 11 22  1  0
  1 23  1  0
  1 24  1  0
  3 25  1  0
  6 26  1  0
  6 27  1  0
  6 28  1  0
  8 29  1  0
  8 30  1  0
  8 31  1  0
  9 32  1  0
  9 33  1  0
  9 34  1  0
 11 35  1  0
 11 36  1  0
 13 37  1  0
 15 38  1  0
 15 39  1  0
 16 40  1  0
 17 41  1  0
M  END
