
     RDKit          3D

 37 42  0  0  0  0  0  0  0  0999 V2000
  -36.4567    5.7897   27.7805 N   0  0  0  0  0  0  0  0  0  0  0  0
  -35.1099    8.5659   22.7944 C   0  0  0  0  0  0  0  0  0  0  0  0
  -34.8037   10.1530   21.0361 C   0  0  0  0  0  0  0  0  0  0  0  0
  -34.3779    9.0580   21.7660 N   0  0  0  0  0  0  0  0  0  0  0  0
  -35.9521   10.7974   21.3125 C   0  0  0  0  0  0  0  0  0  0  0  0
  -33.2123    6.3470   24.7356 O   0  0  0  0  0  0  0  0  0  0  0  0
  -36.0765    6.6906   26.8286 C   0  0  0  0  0  0  0  0  0  0  0  0
  -36.1573    7.5420   24.4595 C   0  0  0  0  0  0  0  0  0  0  0  0
  -34.9661    7.5062   23.6641 C   0  0  0  0  0  0  0  0  0  0  0  0
  -36.2968    9.1927   23.1081 N   0  0  0  0  0  0  0  0  0  0  0  0
  -37.3257    4.8347   27.3813 C   0  0  0  0  0  0  0  0  0  0  0  0
  -37.8029    4.7642   26.0868 C   0  0  0  0  0  0  0  0  0  0  0  0
  -36.5553    6.6073   25.5138 C   0  0  0  0  0  0  0  0  0  0  0  0
  -36.9227    8.6089   24.1563 N   0  0  0  0  0  0  0  0  0  0  0  0
  -37.4331    5.6429   25.1317 N   0  0  0  0  0  0  0  0  0  0  0  0
  -35.1225    7.7561   27.2784 C   0  0  0  0  0  0  0  0  0  0  0  0
  -37.8419   10.8737   22.7760 O   0  0  0  0  0  0  0  0  0  0  0  0
  -36.7999   10.3254   22.4412 C   0  0  0  0  0  0  0  0  0  0  0  0
  -33.9573   10.5882   19.9112 C   0  0  0  0  0  0  0  0  0  0  0  0
  -33.0596    9.6911   19.3195 C   0  0  0  0  0  0  0  0  0  0  0  0
  -32.2383   10.0993   18.2647 C   0  0  0  0  0  0  0  0  0  0  0  0
  -32.2925   11.4141   17.7801 C   0  0  0  0  0  0  0  0  0  0  0  0
  -33.1981   12.3071   18.3700 C   0  0  0  0  0  0  0  0  0  0  0  0
  -34.0188   11.9004   19.4270 C   0  0  0  0  0  0  0  0  0  0  0  0
  -31.3939   11.8278   16.6278 C   0  0  0  0  0  0  0  0  0  0  0  0
  -30.9981   13.3141   16.7285 C   0  0  0  0  0  0  0  0  0  0  0  0
  -29.7164   13.6561   15.9627 C   0  0  0  0  0  0  0  0  0  0  0  0
  -29.4926   12.7317   14.7739 C   0  0  0  0  0  0  0  0  0  0  0  0
  -29.3729   11.2684   15.2024 C   0  0  0  0  0  0  0  0  0  0  0  0
  -30.1522   10.9369   16.4787 C   0  0  0  0  0  0  0  0  0  0  0  0
  -33.8537    6.5743   23.7150 C   0  0  0  0  0  0  0  0  0  0  0  0
  -32.4672    6.2822   21.6363 C   0  0  0  0  0  0  0  0  0  0  0  0
  -33.2671    5.6222   20.5040 C   0  0  0  0  0  0  0  0  0  0  0  0
  -34.5059    5.7195   21.4068 C   0  0  0  0  0  0  0  0  0  0  0  0
  -32.8400    4.2129   20.1508 C   0  0  0  0  0  0  0  0  0  0  0  0
  -32.8164    4.1134   18.7946 F   0  0  0  0  0  0  0  0  0  0  0  0
  -33.5783    5.9218   22.5223 N   0  0  0  0  0  0  0  0  0  0  0  0
  3  4  4  0
  2  4  4  0
  3  5  4  0
  1  7  4  0
  2  9  4  0
  8  9  4  0
  2 10  4  0
  1 11  4  0
 11 12  4  0
  8 13  1  0
  7 13  4  0
 10 14  4  0
  8 14  4  0
 13 15  4  0
 12 15  4  0
  7 16  1  0
  5 18  4  0
 17 18  2  0
 10 18  4  0
  3 19  1  0
 19 20  4  0
 20 21  4  0
 21 22  4  0
 22 23  4  0
 23 24  4  0
 19 24  4  0
 22 25  1  0
 25 26  1  0
 26 27  1  0
 27 28  1  0
 28 29  1  0
 29 30  1  0
 25 30  1  0
  9 31  1  0
  6 31  2  0
 32 33  1  0
 33 34  1  0
 33 35  1  0
 35 36  1  0
 34 37  1  0
 32 37  1  0
 31 37  1  0
M  END
