7B0E_C2E_A_401
     RDKit          3D

 46 52  0  0  0  0  0  0  0  0999 V2000
  -24.3090  -28.3030   -0.5490 P   0  0  1  0  0  0  0  0  0  0  0  0
  -23.0550  -27.4730   -0.9100 O   0  0  0  0  0  0  0  0  0  0  0  0
  -24.0480  -29.7390   -0.3100 O   0  0  0  0  0  0  0  0  0  0  0  0
  -25.0000  -27.5360    0.6620 O   0  0  0  0  0  0  0  0  0  0  0  0
  -26.0500  -28.1140    1.4380 C   0  0  0  0  0  0  0  0  0  0  0  0
  -26.4270  -27.2380    2.6040 C   0  0  1  0  0  0  0  0  0  0  0  0
  -25.3250  -27.1730    3.5360 O   0  0  0  0  0  0  0  0  0  0  0  0
  -26.6800  -25.7730    2.2900 C   0  0  1  0  0  0  0  0  0  0  0  0
  -27.9470  -25.5570    1.6960 O   0  0  0  0  0  0  0  0  0  0  0  0
  -26.5380  -25.1380    3.6710 C   0  0  1  0  0  0  0  0  0  0  0  0
  -27.6380  -25.3950    4.5440 O   0  0  0  0  0  0  0  0  0  0  0  0
  -25.3350  -25.9240    4.2100 C   0  0  2  0  0  0  0  0  0  0  0  0
  -24.0420  -25.2740    3.9680 N   0  0  0  0  0  0  0  0  0  0  0  0
  -23.2070  -25.2630    2.8150 C   0  0  0  0  0  0  0  0  0  0  0  0
  -22.0540  -24.5800    3.0420 N   0  0  0  0  0  0  0  0  0  0  0  0
  -22.1630  -24.1400    4.3760 C   0  0  0  0  0  0  0  0  0  0  0  0
  -21.2380  -23.3840    5.1570 C   0  0  0  0  0  0  0  0  0  0  0  0
  -20.1440  -22.9310    4.8740 O   0  0  0  0  0  0  0  0  0  0  0  0
  -21.7130  -23.1490    6.4940 N   0  0  0  0  0  0  0  0  0  0  0  0
  -22.9360  -23.6060    6.9520 C   0  0  0  0  0  0  0  0  0  0  0  0
  -23.2670  -23.3420    8.2560 N   0  0  0  0  0  0  0  0  0  0  0  0
  -23.8340  -24.3170    6.2210 N   0  0  0  0  0  0  0  0  0  0  0  0
  -23.3740  -24.5530    4.9460 C   0  0  0  0  0  0  0  0  0  0  0  0
  -28.1900  -24.5380    0.5000 P   0  0  2  0  0  0  0  0  0  0  0  0
  -27.4370  -23.2200    0.8010 O   0  0  0  0  0  0  0  0  0  0  0  0
  -29.6610  -24.4590    0.1660 O   0  0  0  0  0  0  0  0  0  0  0  0
  -27.3570  -25.1690   -0.6920 O   0  0  0  0  0  0  0  0  0  0  0  0
  -27.8980  -26.2360   -1.4750 C   0  0  0  0  0  0  0  0  0  0  0  0
  -27.0060  -26.5630   -2.6430 C   0  0  1  0  0  0  0  0  0  0  0  0
  -26.9530  -25.4440   -3.5540 O   0  0  0  0  0  0  0  0  0  0  0  0
  -25.5440  -26.7720   -2.3020 C   0  0  1  0  0  0  0  0  0  0  0  0
  -25.3500  -28.0440   -1.7360 O   0  0  0  0  0  0  0  0  0  0  0  0
  -24.8810  -26.6080   -3.6660 C   0  0  1  0  0  0  0  0  0  0  0  0
  -25.0550  -27.7620   -4.4840 O   0  0  0  0  0  0  0  0  0  0  0  0
  -25.7110  -25.4490   -4.2400 C   0  0  2  0  0  0  0  0  0  0  0  0
  -25.0810  -24.1460   -4.0190 N   0  0  0  0  0  0  0  0  0  0  0  0
  -25.0120  -23.3230   -2.8590 C   0  0  0  0  0  0  0  0  0  0  0  0
  -24.3980  -22.1370   -3.1320 N   0  0  0  0  0  0  0  0  0  0  0  0
  -24.0690  -22.2180   -4.5020 C   0  0  0  0  0  0  0  0  0  0  0  0
  -23.4380  -21.2560   -5.3540 C   0  0  0  0  0  0  0  0  0  0  0  0
  -23.0550  -20.1170   -5.1320 O   0  0  0  0  0  0  0  0  0  0  0  0
  -23.2910  -21.7280   -6.7080 N   0  0  0  0  0  0  0  0  0  0  0  0
  -23.7250  -22.9810   -7.1230 C   0  0  0  0  0  0  0  0  0  0  0  0
  -23.5560  -23.3280   -8.4440 N   0  0  0  0  0  0  0  0  0  0  0  0
  -24.3260  -23.9000   -6.3240 N   0  0  0  0  0  0  0  0  0  0  0  0
  -24.4730  -23.4490   -5.0390 C   0  0  0  0  0  0  0  0  0  0  0  0
  1  2  1  6
  1  3  2  0
  1  4  1  0
  4  5  1  0
  6  5  1  6
  6  7  1  0
  6  8  1  0
  8  9  1  1
  8 10  1  0
 10 11  1  1
 10 12  1  0
  7 12  1  0
 12 13  1  6
 13 14  1  0
 14 15  2  0
 15 16  1  0
 16 17  1  0
 17 18  2  0
 17 19  1  0
 19 20  1  0
 20 21  1  0
 20 22  2  0
 13 23  1  0
 22 23  1  0
 16 23  2  0
  9 24  1  0
 24 25  1  1
 24 26  2  0
 24 27  1  0
 27 28  1  0
 29 28  1  1
 29 30  1  0
 29 31  1  0
 31 32  1  6
  1 32  1  0
 31 33  1  0
 33 34  1  6
 30 35  1  0
 33 35  1  0
 35 36  1  1
 36 37  1  0
 37 38  2  0
 38 39  1  0
 39 40  1  0
 40 41  2  0
 40 42  1  0
 42 43  1  0
 43 44  1  0
 43 45  2  0
 36 46  1  0
 39 46  2  0
 45 46  1  0
M  END
$$$$
