7B0E_C2E_A_401
     RDKit          3D

 70 76  0  0  0  0  0  0  0  0999 V2000
    0.3010   -3.3158   -2.1712 P   0  0  1  0  0  5  0  0  0  0  0  0
   -1.3199   -3.7004   -1.8721 O   0  0  0  0  0  0  0  0  0  0  0  0
    0.7763   -4.1113   -3.3695 O   0  0  0  0  0  0  0  0  0  0  0  0
    0.4101   -1.6435   -2.4885 O   0  0  0  0  0  0  0  0  0  0  0  0
    1.6163   -1.3880   -3.1685 C   0  0  0  0  0  0  0  0  0  0  0  0
    1.9467    0.1026   -3.1024 C   0  0  1  0  0  0  0  0  0  0  0  0
    0.8474    0.8625   -3.5287 O   0  0  0  0  0  0  0  0  0  0  0  0
    2.3325    0.5543   -1.6923 C   0  0  1  0  0  0  0  0  0  0  0  0
    3.7468    0.6053   -1.5823 O   0  0  0  0  0  0  0  0  0  0  0  0
    1.6996    1.9297   -1.5822 C   0  0  1  0  0  0  0  0  0  0  0  0
    2.6441    2.9508   -1.3633 O   0  0  0  0  0  0  0  0  0  0  0  0
    1.0006    2.1241   -2.9270 C   0  0  2  0  0  0  0  0  0  0  0  0
   -0.3126    2.7487   -2.7562 N   0  0  0  0  0  0  0  0  0  0  0  0
   -0.7002    3.9770   -3.1919 C   0  0  0  0  0  0  0  0  0  0  0  0
   -2.0087    4.2586   -2.9261 N   0  0  0  0  0  0  0  0  0  0  0  0
   -2.4257    3.1432   -2.2869 C   0  0  0  0  0  0  0  0  0  0  0  0
   -3.6817    2.8341   -1.7709 C   0  0  0  0  0  0  0  0  0  0  0  0
   -4.6443    3.6447   -1.8650 O   0  0  0  0  0  0  0  0  0  0  0  0
   -3.8436    1.6211   -1.1545 N   0  0  0  0  0  0  0  0  0  0  0  0
   -2.7965    0.7348   -1.0426 C   0  0  0  0  0  0  0  0  0  0  0  0
   -2.9909   -0.5211   -0.3858 N   0  0  0  0  0  0  0  0  0  0  0  0
   -1.5654    1.0459   -1.5672 N   0  0  0  0  0  0  0  0  0  0  0  0
   -1.4173    2.2468   -2.1825 C   0  0  0  0  0  0  0  0  0  0  0  0
    4.2771   -0.2506   -0.1958 P   0  0  2  0  0  5  0  0  0  0  0  0
    4.1105    0.7507    1.1638 O   0  0  0  0  0  0  0  0  0  0  0  0
    5.7428   -0.5866   -0.3663 O   0  0  0  0  0  0  0  0  0  0  0  0
    3.4044   -1.7144   -0.0166 O   0  0  0  0  0  0  0  0  0  0  0  0
    2.7664   -1.7029    1.2453 C   0  0  0  0  0  0  0  0  0  0  0  0
    1.8598   -2.9267    1.4004 C   0  0  1  0  0  0  0  0  0  0  0  0
    1.2258   -2.8750    2.6631 O   0  0  0  0  0  0  0  0  0  0  0  0
    0.7823   -2.9987    0.3187 C   0  0  1  0  0  0  0  0  0  0  0  0
    1.2643   -3.7045   -0.8128 O   0  0  0  0  0  0  0  0  0  0  0  0
   -0.3331   -3.7354    1.0385 C   0  0  1  0  0  0  0  0  0  0  0  0
   -0.3073   -5.1241    0.7955 O   0  0  0  0  0  0  0  0  0  0  0  0
   -0.0675   -3.4303    2.5191 C   0  0  2  0  0  0  0  0  0  0  0  0
   -1.0730   -2.4942    3.0328 N   0  0  0  0  0  0  0  0  0  0  0  0
   -2.3081   -2.8186    3.4835 C   0  0  0  0  0  0  0  0  0  0  0  0
   -3.1097   -1.7394    3.7044 N   0  0  0  0  0  0  0  0  0  0  0  0
   -2.3187   -0.7104    3.3633 C   0  0  0  0  0  0  0  0  0  0  0  0
   -2.6080    0.6460    3.3293 C   0  0  0  0  0  0  0  0  0  0  0  0
   -3.7333    1.0841    3.6823 O   0  0  0  0  0  0  0  0  0  0  0  0
   -1.6356    1.4989    2.8898 N   0  0  0  0  0  0  0  0  0  0  0  0
   -0.4113    1.0250    2.4865 C   0  0  0  0  0  0  0  0  0  0  0  0
    0.5873    1.9326    2.0241 N   0  0  0  0  0  0  0  0  0  0  0  0
   -0.1456   -0.3188    2.5137 N   0  0  0  0  0  0  0  0  0  0  0  0
   -1.1108   -1.1548    2.9589 C   0  0  0  0  0  0  0  0  0  0  0  0
   -1.3551   -4.6873   -1.8781 H   0  0  0  0  0  0  0  0  0  0  0  0
    2.4820   -1.9383   -2.7275 H   0  0  0  0  0  0  0  0  0  0  0  0
    1.5011   -1.6646   -4.2376 H   0  0  0  0  0  0  0  0  0  0  0  0
    2.7923    0.2908   -3.7926 H   0  0  0  0  0  0  0  0  0  0  0  0
    1.8311   -0.1034   -0.9467 H   0  0  0  0  0  0  0  0  0  0  0  0
    0.9523    1.9172   -0.7516 H   0  0  0  0  0  0  0  0  0  0  0  0
    2.9275    2.8659   -0.4166 H   0  0  0  0  0  0  0  0  0  0  0  0
    1.6238    2.7568   -3.6063 H   0  0  0  0  0  0  0  0  0  0  0  0
   -0.0374    4.6644   -3.7034 H   0  0  0  0  0  0  0  0  0  0  0  0
   -4.7794    1.3650   -0.7605 H   0  0  0  0  0  0  0  0  0  0  0  0
   -2.2056   -1.2064   -0.3248 H   0  0  0  0  0  0  0  0  0  0  0  0
   -3.9166   -0.7690    0.0238 H   0  0  0  0  0  0  0  0  0  0  0  0
    4.4570    1.6284    0.8780 H   0  0  0  0  0  0  0  0  0  0  0  0
    3.5311   -1.7417    2.0584 H   0  0  0  0  0  0  0  0  0  0  0  0
    2.1355   -0.7950    1.3708 H   0  0  0  0  0  0  0  0  0  0  0  0
    2.4917   -3.8429    1.3658 H   0  0  0  0  0  0  0  0  0  0  0  0
    0.4523   -1.9540    0.0772 H   0  0  0  0  0  0  0  0  0  0  0  0
   -1.3211   -3.3426    0.7097 H   0  0  0  0  0  0  0  0  0  0  0  0
    0.5835   -5.4733    1.0606 H   0  0  0  0  0  0  0  0  0  0  0  0
   -0.1164   -4.3699    3.1216 H   0  0  0  0  0  0  0  0  0  0  0  0
   -2.6439   -3.8407    3.6166 H   0  0  0  0  0  0  0  0  0  0  0  0
   -1.8308    2.5263    2.8518 H   0  0  0  0  0  0  0  0  0  0  0  0
    0.3858    2.9445    1.8891 H   0  0  0  0  0  0  0  0  0  0  0  0
    1.5221    1.5768    1.7435 H   0  0  0  0  0  0  0  0  0  0  0  0
  1  2  1  1
  1  3  2  0
  1  4  1  0
  4  5  1  0
  6  5  1  0
  6  7  1  0
  6  8  1  0
  8  9  1  0
  8 10  1  0
 10 11  1  0
 10 12  1  0
  7 12  1  0
 12 13  1  0
 13 14  1  0
 14 15  2  0
 15 16  1  0
 16 17  1  0
 17 18  2  0
 17 19  1  0
 19 20  1  0
 20 21  1  0
 20 22  2  0
 13 23  1  0
 22 23  1  0
 16 23  2  0
  9 24  1  0
 24 25  1  1
 24 26  2  0
 24 27  1  0
 27 28  1  0
 29 28  1  0
 29 30  1  0
 29 31  1  0
 31 32  1  0
  1 32  1  0
 31 33  1  0
 33 34  1  0
 30 35  1  0
 33 35  1  0
 35 36  1  0
 36 37  1  0
 37 38  2  0
 38 39  1  0
 39 40  1  0
 40 41  2  0
 40 42  1  0
 42 43  1  0
 43 44  1  0
 43 45  2  0
 36 46  1  0
 39 46  2  0
 45 46  1  0
  2 47  1  0
  5 48  1  0
  5 49  1  0
  6 50  1  6
  8 51  1  1
 10 52  1  1
 11 53  1  0
 12 54  1  6
 14 55  1  0
 19 56  1  0
 21 57  1  0
 21 58  1  0
 25 59  1  0
 28 60  1  0
 28 61  1  0
 29 62  1  1
 31 63  1  6
 33 64  1  6
 34 65  1  0
 35 66  1  1
 37 67  1  0
 42 68  1  0
 44 69  1  0
 44 70  1  0
M  END
