
     RDKit          3D

 13 13  0  0  0  0  0  0  0  0999 V2000
   58.7544   16.4755   12.6099 C   0  0  0  0  0  0  0  0  0  0  0  0
   58.8169   17.0022   13.9910 C   0  0  0  0  0  0  0  0  0  0  0  0
   59.8242   16.5990   14.8754 C   0  0  0  0  0  0  0  0  0  0  0  0
   59.8277   17.1276   16.1524 C   0  0  0  0  0  0  0  0  0  0  0  0
   57.9358   18.3931   15.7130 C   0  0  0  0  0  0  0  0  0  0  0  0
   56.9211   19.3728   16.2007 C   0  0  0  0  0  0  0  0  0  0  0  0
   57.8539   17.9155   14.4141 C   0  0  0  0  0  0  0  0  0  0  0  0
   56.8791   18.3181   13.5880 F   0  0  0  0  0  0  0  0  0  0  0  0
   58.9108   18.0117   16.5904 N   0  0  0  0  0  0  0  0  0  0  0  0
   57.6311   15.7667   12.3891 O   0  0  0  0  0  0  0  0  0  0  0  0
   59.5753   16.6219   11.7274 O   0  0  0  0  0  0  0  0  0  0  0  0
   57.0744   20.5688   16.3673 O   0  0  0  0  0  0  0  0  0  0  0  0
   55.7281   18.7991   16.4655 O   0  0  0  0  0  0  0  0  0  0  0  0
  1  2  1  0
  2  3  4  0
  3  4  4  0
  5  6  1  0
  2  7  4  0
  5  7  4  0
  7  8  1  0
  4  9  4  0
  5  9  4  0
  1 10  1  0
  1 11  2  0
  6 12  2  0
  6 13  1  0
M  END
