1P62_GEO_B_302
     RDKit          3D

 18 19  0  0  0  0  0  0  0  0999 V2000
   69.9710   38.0950   20.6110 O   0  0  0  0  0  0  0  0  0  0  0  0
   70.2680   37.3460   21.7920 C   0  0  0  0  0  0  0  0  0  0  0  0
   70.4670   35.8600   21.3710 C   0  0  1  0  0  0  0  0  0  0  0  0
   69.1490   35.3280   21.0460 O   0  0  0  0  0  0  0  0  0  0  0  0
   69.2100   34.4730   19.9010 C   0  0  1  0  0  0  0  0  0  0  0  0
   67.9220   34.4220   19.1610 N   0  0  0  0  0  0  0  0  0  0  0  0
   67.1460   35.4720   18.9970 C   0  0  0  0  0  0  0  0  0  0  0  0
   65.9110   35.3510   18.5820 C   0  0  0  0  0  0  0  0  0  0  0  0
   65.4560   34.2010   18.1600 C   0  0  0  0  0  0  0  0  0  0  0  0
   66.2500   33.1260   18.1940 N   0  0  0  0  0  0  0  0  0  0  0  0
   67.4980   33.2220   18.6960 C   0  0  0  0  0  0  0  0  0  0  0  0
   68.2730   32.1280   18.7270 O   0  0  0  0  0  0  0  0  0  0  0  0
   64.2250   34.0320   17.6390 N   0  0  0  0  0  0  0  0  0  0  0  0
   70.3860   35.0840   19.0980 C   0  0  0  0  0  0  0  0  0  0  0  0
   69.9430   36.0620   18.3370 F   0  0  0  0  0  0  0  0  0  0  0  0
   70.8690   34.2060   18.2630 F   0  0  0  0  0  0  0  0  0  0  0  0
   71.3680   35.6020   20.1690 C   0  0  2  0  0  0  0  0  0  0  0  0
   72.4070   34.5860   20.4110 O   0  0  0  0  0  0  0  0  0  0  0  0
  1  2  1  0
  3  2  1  6
  3  4  1  0
  4  5  1  0
  5  6  1  6
  6  7  1  0
  7  8  2  0
  8  9  1  0
  9 10  2  0
  6 11  1  0
 10 11  1  0
 11 12  2  0
  9 13  1  0
  5 14  1  0
 14 15  1  0
 14 16  1  0
  3 17  1  0
 14 17  1  0
 17 18  1  1
M  END
$$$$
