7WY1_D0L_B_502
     RDKit          3D

 58 59  0  0  0  0  0  0  0  0999 V2000
   -2.6205  -32.7692  -71.4759 C   0  0  0  0  0  0  0  0  0  0  0  0
   -2.2280  -31.4570  -71.3518 C   0  0  0  0  0  0  0  0  0  0  0  0
   -1.7786  -32.1133  -70.5364 C   0  0  0  0  0  0  0  0  0  0  0  0
   -1.6022  -32.5218  -72.9394 C   0  0  0  0  0  0  0  0  0  0  0  0
   -2.1063  -30.8504  -69.9819 C   0  0  0  0  0  0  0  0  0  0  0  0
   -3.9550  -32.2854  -73.4787 C   0  0  0  0  0  0  0  0  0  0  0  0
   -4.4721  -30.8373  -71.4928 C   0  0  0  0  0  0  0  0  0  0  0  0
   -1.8769  -30.7380  -72.4838 C   0  0  0  0  0  0  0  0  0  0  0  0
   -2.5646  -32.3643  -74.1064 C   0  0  0  0  0  0  0  0  0  0  0  0
   -3.6497  -31.9837  -72.0147 C   0  0  2  0  0  0  0  0  0  0  0  0
   -2.6992  -33.3161  -72.7223 C   0  0  0  0  0  0  0  0  0  0  0  0
   -3.3138  -30.0748  -69.4447 C   0  0  2  0  0  0  0  0  0  0  0  0
   -2.3748  -32.6184  -73.8789 C   0  0  0  0  0  0  0  0  0  0  0  0
   -3.5041  -30.3332  -67.9765 C   0  0  0  0  0  0  0  0  0  0  0  0
   -1.9536  -31.3181  -73.7523 C   0  0  0  0  0  0  0  0  0  0  0  0
   -2.6675  -29.8308  -67.1777 O   0  0  0  0  0  0  0  0  0  0  0  0
   -5.1324  -30.1812  -72.2992 O   0  0  0  0  0  0  0  0  0  0  0  0
   -4.4830  -31.0335  -67.5805 O   0  0  0  0  0  0  0  0  0  0  0  0
   -2.1818  -31.7193  -71.9138 N   0  0  0  0  0  0  0  0  0  0  0  0
   -1.4302  -30.9801  -69.5961 C   0  0  0  0  0  0  0  0  0  0  0  0
   -1.1174  -29.7307  -70.4161 C   0  0  0  0  0  0  0  0  0  0  0  0
   -0.7835  -30.0427  -71.8777 C   0  0  0  0  0  0  0  0  0  0  0  0
   -1.4165  -31.3945  -72.2102 C   0  0  0  0  0  0  0  0  0  0  0  0
   -2.3549  -31.3940  -73.4077 C   0  0  0  0  0  0  0  0  0  0  0  0
   -2.3597  -32.7170  -74.1731 C   0  0  0  0  0  0  0  0  0  0  0  0
   -4.4215  -30.6042  -70.1880 N   0  0  0  0  0  0  0  0  0  0  0  0
   -2.8513  -33.3297  -70.6406 H   0  0  0  0  0  0  0  0  0  0  0  0
   -2.5889  -32.6610  -70.1024 H   0  0  0  0  0  0  0  0  0  0  0  0
   -0.8780  -32.6796  -70.6509 H   0  0  0  0  0  0  0  0  0  0  0  0
   -1.5380  -33.5450  -72.6330 H   0  0  0  0  0  0  0  0  0  0  0  0
   -0.6031  -32.2263  -73.1828 H   0  0  0  0  0  0  0  0  0  0  0  0
   -1.9045  -31.6459  -69.2954 H   0  0  0  0  0  0  0  0  0  0  0  0
   -1.3304  -30.1195  -70.0740 H   0  0  0  0  0  0  0  0  0  0  0  0
   -4.5334  -31.5014  -73.9210 H   0  0  0  0  0  0  0  0  0  0  0  0
   -4.5323  -33.1758  -73.6158 H   0  0  0  0  0  0  0  0  0  0  0  0
   -1.5549  -29.7622  -72.3883 H   0  0  0  0  0  0  0  0  0  0  0  0
   -2.3487  -31.4691  -74.6513 H   0  0  0  0  0  0  0  0  0  0  0  0
   -2.4863  -33.1764  -74.7987 H   0  0  0  0  0  0  0  0  0  0  0  0
   -3.9145  -32.8189  -71.4004 H   0  0  0  0  0  0  0  0  0  0  0  0
   -3.0148  -34.2947  -72.8107 H   0  0  0  0  0  0  0  0  0  0  0  0
   -3.2021  -29.0162  -69.5543 H   0  0  0  0  0  0  0  0  0  0  0  0
   -2.4483  -33.0648  -74.8065 H   0  0  0  0  0  0  0  0  0  0  0  0
   -1.6952  -30.7722  -74.5892 H   0  0  0  0  0  0  0  0  0  0  0  0
   -5.0852  -31.3912  -68.2028 H   0  0  0  0  0  0  0  0  0  0  0  0
   -2.2584  -30.7852  -68.9472 H   0  0  0  0  0  0  0  0  0  0  0  0
   -0.5779  -31.2485  -69.0075 H   0  0  0  0  0  0  0  0  0  0  0  0
   -1.9698  -29.0844  -70.3914 H   0  0  0  0  0  0  0  0  0  0  0  0
   -0.2546  -29.2705  -69.9818 H   0  0  0  0  0  0  0  0  0  0  0  0
   -1.1856  -29.2833  -72.5153 H   0  0  0  0  0  0  0  0  0  0  0  0
    0.2757  -30.0736  -72.0261 H   0  0  0  0  0  0  0  0  0  0  0  0
   -0.6275  -32.0895  -72.4084 H   0  0  0  0  0  0  0  0  0  0  0  0
   -2.0159  -31.6576  -71.3638 H   0  0  0  0  0  0  0  0  0  0  0  0
   -3.3480  -31.1988  -73.0606 H   0  0  0  0  0  0  0  0  0  0  0  0
   -2.0075  -30.6392  -74.0819 H   0  0  0  0  0  0  0  0  0  0  0  0
   -2.7027  -33.5000  -73.5297 H   0  0  0  0  0  0  0  0  0  0  0  0
   -3.0118  -32.6379  -75.0178 H   0  0  0  0  0  0  0  0  0  0  0  0
   -1.3679  -32.9390  -74.5079 H   0  0  0  0  0  0  0  0  0  0  0  0
   -5.2328  -30.8178  -69.6729 H   0  0  0  0  0  0  0  0  0  0  0  0
  1  2  4  0
  2  5  1  0
  2  8  4  0
  4  9  1  0
  6  9  1  0
  6 10  1  0
 10  7  1  0
  1 11  4  0
 12  5  1  0
 11 13  4  0
 12 14  1  0
 13 15  4  0
  8 15  4  0
 14 16  2  0
  7 17  2  0
 14 18  1  0
  4 19  1  0
  3 19  1  0
 10 19  1  0
  3 20  1  0
 20 21  1  0
 21 22  1  0
 22 23  1  0
 23 24  1  0
 24 25  1  0
  7 26  1  0
 12 26  1  0
  1 27  1  0
  3 28  1  0
  3 29  1  0
  4 30  1  0
  4 31  1  0
  5 32  1  0
  5 33  1  0
  6 34  1  0
  6 35  1  0
  8 36  1  0
  9 37  1  0
  9 38  1  0
 10 39  1  6
 11 40  1  0
 12 41  1  6
 13 42  1  0
 15 43  1  0
 18 44  1  0
 20 45  1  0
 20 46  1  0
 21 47  1  0
 21 48  1  0
 22 49  1  0
 22 50  1  0
 23 51  1  0
 23 52  1  0
 24 53  1  0
 24 54  1  0
 25 55  1  0
 25 56  1  0
 25 57  1  0
 26 58  1  0
M  END
