7T3E_SLB_A_301
     RDKit          3D

 40 40  0  0  0  0  0  0  0  0999 V2000
   -3.7306    1.0606   -0.5545 C   0  0  0  0  0  0  0  0  0  0  0  0
   -2.6688    0.2642    0.1594 C   0  0  1  0  0  0  0  0  0  0  0  0
   -2.2311    1.0601    1.4061 C   0  0  0  0  0  0  0  0  0  0  0  0
   -1.0511    0.3751    2.1059 C   0  0  1  0  0  0  0  0  0  0  0  0
    0.0663    0.1000    1.0895 C   0  0  2  0  0  0  0  0  0  0  0  0
   -0.5137   -0.6647   -0.1271 C   0  0  2  0  0  0  0  0  0  0  0  0
    0.5772   -0.9426   -1.1960 C   0  0  1  0  0  0  0  0  0  0  0  0
    0.0219   -1.7494   -2.3983 C   0  0  1  0  0  0  0  0  0  0  0  0
    1.0985   -2.0035   -3.4691 C   0  0  0  0  0  0  0  0  0  0  0  0
    2.5003   -0.2785    1.7596 C   0  0  0  0  0  0  0  0  0  0  0  0
    3.5272   -1.1706    2.3765 C   0  0  0  0  0  0  0  0  0  0  0  0
    1.1254   -0.6873    1.7312 N   0  0  0  0  0  0  0  0  0  0  0  0
   -3.4115    1.8789   -1.4592 O   0  0  0  0  0  0  0  0  0  0  0  0
   -5.0644    0.9386   -0.1744 O   0  0  0  0  0  0  0  0  0  0  0  0
   -3.2167   -0.9734    0.5529 O   0  0  0  0  0  0  0  0  0  0  0  0
   -0.5582    1.1994    3.1299 O   0  0  0  0  0  0  0  0  0  0  0  0
   -1.5694    0.0760   -0.7262 O   0  0  0  0  0  0  0  0  0  0  0  0
    1.1712    0.2586   -1.6276 O   0  0  0  0  0  0  0  0  0  0  0  0
   -0.4871   -2.9783   -1.9451 O   0  0  0  0  0  0  0  0  0  0  0  0
    2.1266   -2.8158   -2.9663 O   0  0  0  0  0  0  0  0  0  0  0  0
    2.8569    0.8144    1.2421 O   0  0  0  0  0  0  0  0  0  0  0  0
   -3.0816    1.1481    2.1181 H   0  0  0  0  0  0  0  0  0  0  0  0
   -1.9254    2.0881    1.1058 H   0  0  0  0  0  0  0  0  0  0  0  0
   -1.3962   -0.5947    2.5377 H   0  0  0  0  0  0  0  0  0  0  0  0
    0.4620    1.0802    0.7412 H   0  0  0  0  0  0  0  0  0  0  0  0
   -0.8854   -1.6549    0.2237 H   0  0  0  0  0  0  0  0  0  0  0  0
    1.3708   -1.5585   -0.7202 H   0  0  0  0  0  0  0  0  0  0  0  0
   -0.7968   -1.1583   -2.8722 H   0  0  0  0  0  0  0  0  0  0  0  0
    0.6305   -2.5264   -4.3301 H   0  0  0  0  0  0  0  0  0  0  0  0
    1.5012   -1.0403   -3.8594 H   0  0  0  0  0  0  0  0  0  0  0  0
    3.6754   -2.0623    1.7326 H   0  0  0  0  0  0  0  0  0  0  0  0
    4.4949   -0.6361    2.4849 H   0  0  0  0  0  0  0  0  0  0  0  0
    3.1848   -1.4972    3.3806 H   0  0  0  0  0  0  0  0  0  0  0  0
    0.8748   -1.6154    2.1428 H   0  0  0  0  0  0  0  0  0  0  0  0
   -5.7866    1.4830   -0.6307 H   0  0  0  0  0  0  0  0  0  0  0  0
   -3.3874   -1.4951   -0.2753 H   0  0  0  0  0  0  0  0  0  0  0  0
   -1.2073    1.1438    3.8791 H   0  0  0  0  0  0  0  0  0  0  0  0
    0.4748    0.7884   -2.0965 H   0  0  0  0  0  0  0  0  0  0  0  0
   -1.1010   -3.3140   -2.6498 H   0  0  0  0  0  0  0  0  0  0  0  0
    2.8175   -2.2087   -2.5932 H   0  0  0  0  0  0  0  0  0  0  0  0
  1  2  1  0
  2  3  1  0
  3  4  1  0
  4  5  1  0
  5  6  1  0
  6  7  1  0
  7  8  1  0
  8  9  1  0
 10 11  1  0
  5 12  1  0
 10 12  1  0
  1 13  2  0
  1 14  1  0
  2 15  1  1
  4 16  1  0
  2 17  1  0
  6 17  1  0
  7 18  1  0
  8 19  1  0
  9 20  1  0
 10 21  2  0
  3 22  1  0
  3 23  1  0
  4 24  1  1
  5 25  1  6
  6 26  1  1
  7 27  1  1
  8 28  1  6
  9 29  1  0
  9 30  1  0
 11 31  1  0
 11 32  1  0
 11 33  1  0
 12 34  1  0
 14 35  1  0
 15 36  1  0
 16 37  1  0
 18 38  1  0
 19 39  1  0
 20 40  1  0
M  END
