7EN7_J79_A_301
     RDKit          3D

 44 44  0  0  0  0  0  0  0  0999 V2000
    1.1974    0.3638   -0.5391 C   0  0  1  0  0  0  0  0  0  0  0  0
   -0.0498    0.4255    0.3580 C   0  0  1  0  0  0  0  0  0  0  0  0
    0.3902    1.3724    2.4667 C   0  0  2  0  0  0  0  0  0  0  0  0
    1.3660    1.1627    3.6213 C   0  0  0  0  0  0  0  0  0  0  0  0
   -0.9694    1.7072    3.0108 C   0  0  0  0  0  0  0  0  0  0  0  0
   -1.0277   -0.6653   -0.0889 C   0  0  2  0  0  0  0  0  0  0  0  0
   -2.9125   -1.8635    1.1320 C   0  0  0  0  0  0  0  0  0  0  0  0
   -4.1569   -1.7813    1.9541 C   0  0  0  0  0  0  0  0  0  0  0  0
   -1.4432   -0.4455   -1.5658 C   0  0  2  0  0  0  0  0  0  0  0  0
    0.8171    0.2038   -2.0447 C   0  0  1  0  0  0  0  0  0  0  0  0
    1.3724   -1.0800   -2.6979 C   0  0  0  0  0  0  0  0  0  0  0  0
   -2.2151   -0.6632    0.7723 N   0  0  0  0  0  0  0  0  0  0  0  0
    1.9519    1.5341   -0.3510 O   0  0  0  0  0  0  0  0  0  0  0  0
    0.3251    0.1785    1.7065 O   0  0  0  0  0  0  0  0  0  0  0  0
   -1.4450    2.8634    2.8541 O   0  0  0  0  0  0  0  0  0  0  0  0
   -1.7011    0.7427    3.6976 O   0  0  0  0  0  0  0  0  0  0  0  0
   -2.4962   -2.9881    0.7427 O   0  0  0  0  0  0  0  0  0  0  0  0
   -1.6100   -1.6792   -2.2132 O   0  0  0  0  0  0  0  0  0  0  0  0
   -0.5671    0.3954   -2.3099 O   0  0  0  0  0  0  0  0  0  0  0  0
    1.0441   -2.2171   -1.9346 O   0  0  0  0  0  0  0  0  0  0  0  0
    3.2569   -3.4597   -3.0912 O   0  0  0  0  0  0  0  0  0  0  0  0
    1.3516   -4.9576   -1.7750 O   0  0  0  0  0  0  0  0  0  0  0  0
    0.8362   -3.7804   -4.0469 O   0  0  0  0  0  0  0  0  0  0  0  0
    1.6033   -3.6024   -2.7555 P   0  0  0  0  0  5  0  0  0  0  0  0
    1.8077   -0.5101   -0.2075 H   0  0  0  0  0  0  0  0  0  0  0  0
   -0.5604    1.4111    0.2159 H   0  0  0  0  0  0  0  0  0  0  0  0
    0.7815    2.2306    1.8705 H   0  0  0  0  0  0  0  0  0  0  0  0
    1.0396    0.3143    4.2609 H   0  0  0  0  0  0  0  0  0  0  0  0
    2.3763    0.9350    3.2196 H   0  0  0  0  0  0  0  0  0  0  0  0
    1.4332    2.0819    4.2423 H   0  0  0  0  0  0  0  0  0  0  0  0
   -0.5053   -1.6430    0.0121 H   0  0  0  0  0  0  0  0  0  0  0  0
   -3.9646   -1.1724    2.8621 H   0  0  0  0  0  0  0  0  0  0  0  0
   -4.9627   -1.3042    1.3581 H   0  0  0  0  0  0  0  0  0  0  0  0
   -4.4877   -2.7950    2.2657 H   0  0  0  0  0  0  0  0  0  0  0  0
   -2.4301    0.0716   -1.5619 H   0  0  0  0  0  0  0  0  0  0  0  0
    1.3247    1.0282   -2.5936 H   0  0  0  0  0  0  0  0  0  0  0  0
    2.4795   -0.9761   -2.7651 H   0  0  0  0  0  0  0  0  0  0  0  0
    0.9538   -1.1507   -3.7281 H   0  0  0  0  0  0  0  0  0  0  0  0
   -2.6560    0.2535    1.0145 H   0  0  0  0  0  0  0  0  0  0  0  0
    2.8660    1.3435   -0.6890 H   0  0  0  0  0  0  0  0  0  0  0  0
   -2.6201    0.9536    4.0678 H   0  0  0  0  0  0  0  0  0  0  0  0
   -1.9776   -1.4792   -3.1133 H   0  0  0  0  0  0  0  0  0  0  0  0
    3.5068   -4.3251   -3.5028 H   0  0  0  0  0  0  0  0  0  0  0  0
    1.8518   -4.7613   -0.9431 H   0  0  0  0  0  0  0  0  0  0  0  0
  1  2  1  0
  3  4  1  0
  3  5  1  0
  2  6  1  0
  7  8  1  0
  6  9  1  0
  1 10  1  0
 10 11  1  0
  6 12  1  0
  7 12  1  0
  1 13  1  0
  3 14  1  0
  2 14  1  0
  5 15  2  0
  5 16  1  0
  7 17  2  0
  9 18  1  0
 10 19  1  0
  9 19  1  0
 11 20  1  0
 23 24  2  0
 21 24  1  0
 20 24  1  0
 22 24  1  0
  1 25  1  1
  2 26  1  1
  3 27  1  6
  4 28  1  0
  4 29  1  0
  4 30  1  0
  6 31  1  6
  8 32  1  0
  8 33  1  0
  8 34  1  0
  9 35  1  1
 10 36  1  6
 11 37  1  0
 11 38  1  0
 12 39  1  0
 13 40  1  0
 16 41  1  0
 18 42  1  0
 21 43  1  0
 22 44  1  0
M  END
