7L5F_XNG_A_304
     RDKit          3D

 18 17  0  0  0  0  0  0  0  0999 V2000
    9.7190   42.2051   13.1399 C   0  0  0  0  0  0  0  0  0  0  0  0
    9.1427   41.8800   18.0085 C   0  0  0  0  0  0  0  0  0  0  0  0
   10.0469   43.0435   18.3322 C   0  0  0  0  0  0  0  0  0  0  0  0
   10.8793   42.7822   19.5828 C   0  0  0  0  0  0  0  0  0  0  0  0
   11.8100   43.9730   19.7516 C   0  0  0  0  0  0  0  0  0  0  0  0
   12.7866   43.7825   20.8835 C   0  0  0  0  0  0  0  0  0  0  0  0
   13.7564   44.9374   21.0090 C   0  0  0  0  0  0  0  0  0  0  0  0
   14.7626   44.6744   22.1225 C   0  0  0  0  0  0  0  0  0  0  0  0
   15.7793   45.8068   22.2264 C   0  0  0  0  0  0  0  0  0  0  0  0
   11.0244   42.8573   13.2583 C   0  0  0  0  0  0  0  0  0  0  0  0
   11.8967   42.7359   12.0188 C   0  0  0  0  0  0  0  0  0  0  0  0
   13.1502   43.5176   12.1511 C   0  0  0  0  0  0  0  0  0  0  0  0
    9.2850   41.9559   15.5346 C   0  0  0  0  0  0  0  0  0  0  0  0
    8.4236   42.1692   16.7193 C   0  0  0  0  0  0  0  0  0  0  0  0
    8.8112   42.2717   14.2379 N   0  0  0  0  0  0  0  0  0  0  0  0
   10.4416   41.4958   15.6473 O   0  0  0  0  0  0  0  0  0  0  0  0
   13.4033   44.2423   13.1480 O   0  0  0  0  0  0  0  0  0  0  0  0
   14.1208   43.4705   11.1365 O   0  0  0  0  0  0  0  0  0  0  0  0
  2  3  1  0
  3  4  1  0
  4  5  1  0
  5  6  1  0
  6  7  1  0
  7  8  1  0
  8  9  1  0
  1 10  1  0
 10 11  1  0
 11 12  1  0
  2 14  1  0
 13 14  1  0
 13 15  1  0
  1 15  1  0
 13 16  2  0
 12 17  2  0
 12 18  1  0
M  END
$$$$
