7L03_F9F_A_301
     RDKit          3D

 33 33  0  0  0  0  0  0  0  0999 V2000
    0.0208   -2.4455    1.1331 C   0  0  0  0  0  0  0  0  0  0  0  0
    0.9032   -1.3541    1.2551 C   0  0  0  0  0  0  0  0  0  0  0  0
    1.9730   -1.4101    2.1537 C   0  0  0  0  0  0  0  0  0  0  0  0
    2.1739   -2.5488    2.9431 C   0  0  0  0  0  0  0  0  0  0  0  0
    1.3018   -3.6380    2.8195 C   0  0  0  0  0  0  0  0  0  0  0  0
    0.2321   -3.5832    1.9214 C   0  0  0  0  0  0  0  0  0  0  0  0
   -1.0696   -2.4455    0.2481 O   0  0  0  0  0  0  0  0  0  0  0  0
   -2.4330   -2.6339    0.6207 C   0  0  2  0  0  0  0  0  0  0  0  0
   -2.9469   -3.7571   -0.0024 F   0  0  0  0  0  0  0  0  0  0  0  0
   -3.1630   -1.5308    0.2227 F   0  0  0  0  0  0  0  0  0  0  0  0
   -2.5380   -2.7663    1.9938 F   0  0  0  0  0  0  0  0  0  0  0  0
    3.5400   -2.6162    4.0547 S   0  0  1  0  0  6  0  0  0  0  0  0
    4.7529   -1.4600    3.5952 N   0  0  0  0  0  0  0  0  0  0  0  0
    4.7045   -1.2387    2.1476 C   0  0  0  0  0  0  0  0  0  0  0  0
    3.2886   -1.4681    1.6257 C   0  0  0  0  0  0  0  0  0  0  0  0
    3.2427   -2.6880    0.9230 O   0  0  0  0  0  0  0  0  0  0  0  0
    1.7848   -3.4807    1.3161 P   0  0  2  0  0  5  0  0  0  0  0  0
    1.9135   -4.2275    2.8305 O   0  0  0  0  0  0  0  0  0  0  0  0
    1.4603   -4.5184    0.2644 O   0  0  0  0  0  0  0  0  0  0  0  0
    0.5371   -2.3396    1.3658 O   0  0  0  0  0  0  0  0  0  0  0  0
    3.0584   -2.3017    5.4432 O   0  0  0  0  0  0  0  0  0  0  0  0
    4.1340   -3.9976    4.0603 O   0  0  0  0  0  0  0  0  0  0  0  0
    0.7759   -0.4599    0.6619 H   0  0  0  0  0  0  0  0  0  0  0  0
    2.6471   -0.5664    2.2315 H   0  0  0  0  0  0  0  0  0  0  0  0
    1.4507   -4.5314    3.4118 H   0  0  0  0  0  0  0  0  0  0  0  0
   -0.4357   -4.4309    1.8351 H   0  0  0  0  0  0  0  0  0  0  0  0
    4.5085   -0.5610    4.0715 H   0  0  0  0  0  0  0  0  0  0  0  0
    5.3970   -1.9367    1.6263 H   0  0  0  0  0  0  0  0  0  0  0  0
    5.0040   -0.1947    1.9073 H   0  0  0  0  0  0  0  0  0  0  0  0
    3.0145   -0.6145    0.9650 H   0  0  0  0  0  0  0  0  0  0  0  0
    2.6021   -1.4918    2.5023 H   0  0  0  0  0  0  0  0  0  0  0  0
    1.0110   -4.5944    3.0088 H   0  0  0  0  0  0  0  0  0  0  0  0
    0.8136   -1.6959    2.0659 H   0  0  0  0  0  0  0  0  0  0  0  0
  1  2  4  0
  2  3  4  0
  3  4  4  0
  4  5  4  0
  1  6  4  0
  5  6  4  0
  1  7  1  0
  7  8  1  0
  8  9  1  1
  8 10  1  0
  8 11  1  0
  4 12  1  0
 12 13  1  1
 13 14  1  0
 14 15  1  0
 15 16  1  0
 17 16  1  1
 17 18  1  0
 17 19  2  0
 17 20  1  0
 12 21  2  0
 12 22  2  0
  2 23  1  0
  3 24  1  0
  5 25  1  0
  6 26  1  0
 13 27  1  0
 14 28  1  0
 14 29  1  0
 15 30  1  0
 15 31  1  0
 18 32  1  0
 20 33  1  0
M  END
