
     RDKit          3D

 27 29  0  0  0  0  0  0  0  0999 V2000
  -21.0369    8.7237    3.4475 C   0  0  0  0  0  0  0  0  0  0  0  0
  -20.0857    8.9308    2.4588 C   0  0  0  0  0  0  0  0  0  0  0  0
  -20.4231    9.7687    1.3842 C   0  0  0  0  0  0  0  0  0  0  0  0
  -21.7065   10.3313    1.3841 C   0  0  0  0  0  0  0  0  0  0  0  0
  -22.0939   11.2277    0.2697 C   0  0  0  0  0  0  0  0  0  0  0  0
  -21.3101   12.4524   -1.7264 C   0  0  1  0  0  0  0  0  0  0  0  0
  -20.5007   12.1701   -2.9961 C   0  0  0  0  0  0  0  0  0  0  0  0
  -19.5370   14.1269   -1.0465 C   0  0  0  0  0  0  0  0  0  0  0  0
  -20.0695   16.1960    0.0890 C   0  0  0  0  0  0  0  0  0  0  0  0
  -17.6403    8.0106    2.2033 C   0  0  0  0  0  0  0  0  0  0  0  0
  -16.5829    7.4323    3.1464 C   0  0  0  0  0  0  0  0  0  0  0  0
  -20.5189    7.8860    4.3872 O   0  0  0  0  0  0  0  0  0  0  0  0
  -19.2244    7.5308    4.0377 N   0  0  0  0  0  0  0  0  0  0  0  0
  -18.9702    8.1636    2.8826 C   0  0  0  0  0  0  0  0  0  0  0  0
  -22.2771    9.2499    3.5047 N   0  0  0  0  0  0  0  0  0  0  0  0
  -22.5581   10.0574    2.4517 C   0  0  0  0  0  0  0  0  0  0  0  0
  -21.1991   11.3599   -0.7698 N   0  0  0  0  0  0  0  0  0  0  0  0
  -23.1582   11.8330    0.3263 O   0  0  0  0  0  0  0  0  0  0  0  0
  -20.8918   13.7552   -1.0648 C   0  0  0  0  0  0  0  0  0  0  0  0
  -19.1295   15.3355   -0.4738 C   0  0  0  0  0  0  0  0  0  0  0  0
  -21.8342   14.6295   -0.5000 C   0  0  0  0  0  0  0  0  0  0  0  0
  -21.4169   15.8336    0.0796 C   0  0  0  0  0  0  0  0  0  0  0  0
  -17.7457    7.1679    0.9303 C   0  0  0  0  0  0  0  0  0  0  0  0
  -22.6337   16.9268    0.7648 S   0  0  0  0  0  6  0  0  0  0  0  0
  -22.1063   17.4969    1.9828 O   0  0  0  0  0  0  0  0  0  0  0  0
  -23.1657   17.7339   -0.3070 O   0  0  0  0  0  0  0  0  0  0  0  0
  -23.8275   15.8431    1.2481 N   0  0  0  0  0  0  0  0  0  0  0  0
  1  2  4  0
  2  3  4  0
  3  4  4  0
  4  5  1  0
  6  7  1  6
 10 11  1  0
  1 12  4  0
 12 13  4  0
 10 14  1  0
  2 14  4  0
 13 14  4  0
  1 15  4  0
  4 16  4  0
 15 16  4  0
  6 17  1  0
  5 17  1  0
  5 18  2  0
  6 19  1  0
  8 19  4  0
  8 20  4  0
  9 20  4  0
 19 21  4  0
 21 22  4  0
  9 22  4  0
 10 23  1  0
 22 24  1  0
 24 25  2  0
 24 26  2  0
 24 27  1  0
M  END
