
     RDKit          3D

 27 29  0  0  0  0  0  0  0  0999 V2000
  -18.6963    3.9638    3.9232 C   0  0  0  0  0  0  0  0  0  0  0  0
  -18.8852    3.7206    5.2866 C   0  0  0  0  0  0  0  0  0  0  0  0
  -19.3771   -0.5155   10.5822 C   0  0  0  0  0  0  0  0  0  0  0  0
  -19.7530   -2.2559   12.2709 C   0  0  0  0  0  0  0  0  0  0  0  0
  -19.9788    0.4414   11.4419 C   0  0  0  0  0  0  0  0  0  0  0  0
  -20.1357    1.8888   11.0513 C   0  0  0  0  0  0  0  0  0  0  0  0
  -13.8839    0.4371   10.2786 C   0  0  0  0  0  0  0  0  0  0  0  0
  -15.0709    0.9802    9.4979 C   0  0  0  0  0  0  0  0  0  0  0  0
  -16.3360    0.1258    9.6391 C   0  0  0  0  0  0  0  0  0  0  0  0
  -17.6466    0.7922    9.1568 C   0  0  1  0  0  0  0  0  0  0  0  0
  -17.4433    1.3826    7.8269 N   0  0  0  0  0  0  0  0  0  0  0  0
  -18.2964    2.3528    7.3439 C   0  0  0  0  0  0  0  0  0  0  0  0
  -19.0608    2.9993    8.0524 O   0  0  0  0  0  0  0  0  0  0  0  0
  -18.2141    2.6746    5.8988 C   0  0  0  0  0  0  0  0  0  0  0  0
  -17.3531    1.8917    5.1070 C   0  0  0  0  0  0  0  0  0  0  0  0
  -17.1915    2.1447    3.7329 C   0  0  0  0  0  0  0  0  0  0  0  0
  -17.8729    3.1974    3.1245 C   0  0  0  0  0  0  0  0  0  0  0  0
  -19.4253    5.0758    3.5353 N   0  0  0  0  0  0  0  0  0  0  0  0
  -20.1085    5.6285    4.6080 C   0  0  0  0  0  0  0  0  0  0  0  0
  -20.8247    6.6141    4.5679 O   0  0  0  0  0  0  0  0  0  0  0  0
  -19.8110    4.7635    5.8351 C   0  0  0  0  0  0  0  0  0  0  0  0
  -18.8160   -0.2424    9.1854 C   0  0  2  0  0  0  0  0  0  0  0  0
  -19.8123    0.0725    8.2128 O   0  0  0  0  0  0  0  0  0  0  0  0
  -19.2667   -1.8532   11.0307 C   0  0  0  0  0  0  0  0  0  0  0  0
  -20.3750   -1.3296   13.0937 C   0  0  0  0  0  0  0  0  0  0  0  0
  -20.4945    0.0006   12.6843 C   0  0  0  0  0  0  0  0  0  0  0  0
  -21.3224    1.0663   13.7716 Cl  0  0  0  0  0  0  0  0  0  0  0  0
  1  2  4  0
  3  5  4  0
  5  6  1  0
  7  8  1  0
  8  9  1  0
 10  9  1  6
 10 11  1  0
 11 12  1  0
 12 13  2  0
  2 14  4  0
 12 14  1  0
 14 15  4  0
 15 16  4  0
 16 17  4  0
  1 17  4  0
  1 18  1  0
 18 19  1  0
 19 20  2  0
 19 21  1  0
  2 21  1  0
 10 22  1  0
  3 22  1  0
 22 23  1  6
  3 24  4  0
  4 24  4  0
  4 25  4  0
  5 26  4  0
 25 26  4  0
 26 27  1  0
M  END
