7QE4_NGA_BBB_404
     RDKit          3D

 15 15  0  0  0  0  0  0  0  0999 V2000
   37.6570   16.3805  121.3145 C   0  0  2  0  0  0  0  0  0  0  0  0
   38.0621   14.9304  121.0384 C   0  0  1  0  0  0  0  0  0  0  0  0
   38.3230   14.7226  119.5475 C   0  0  2  0  0  0  0  0  0  0  0  0
   37.1280   15.2038  118.7447 C   0  0  2  0  0  0  0  0  0  0  0  0
   36.8715   16.6487  119.1334 C   0  0  1  0  0  0  0  0  0  0  0  0
   35.7586   17.2559  118.2981 C   0  0  0  0  0  0  0  0  0  0  0  0
   39.3912   13.4380  122.4539 C   0  0  0  0  0  0  0  0  0  0  0  0
   40.7904   13.1627  122.9234 C   0  0  0  0  0  0  0  0  0  0  0  0
   39.2548   14.5899  121.7890 N   0  0  0  0  0  0  0  0  0  0  0  0
   37.3317   16.6081  122.6904 O   0  0  0  0  0  0  0  0  0  0  0  0
   38.5442   13.3470  119.2411 O   0  0  0  0  0  0  0  0  0  0  0  0
   36.0138   14.3362  119.0303 O   0  0  0  0  0  0  0  0  0  0  0  0
   36.5271   16.7132  120.5154 O   0  0  0  0  0  0  0  0  0  0  0  0
   34.6360   16.3912  118.4397 O   0  0  0  0  0  0  0  0  0  0  0  0
   38.4678   12.6572  122.6735 O   0  0  0  0  0  0  0  0  0  0  0  0
  1  2  1  0
  2  3  1  0
  3  4  1  0
  4  5  1  0
  5  6  1  6
  7  8  1  0
  2  9  1  1
  7  9  1  0
  1 10  1  1
  3 11  1  1
  4 12  1  1
  1 13  1  0
  5 13  1  0
  6 14  1  0
  7 15  2  0
M  END
