7QGP_DJ8_A_401
     RDKit          3D

 60 64  0  0  0  0  0  0  0  0999 V2000
  -23.7783    3.1792   10.9098 N   0  0  0  0  0  0  0  0  0  0  0  0
  -24.4491    2.1665    7.5980 C   0  0  1  0  0  0  0  0  0  0  0  0
  -23.2145    2.4847    9.7913 C   0  0  0  0  0  0  0  0  0  0  0  0
  -17.3651    2.6840   16.2686 N   0  0  0  0  0  0  0  0  0  0  0  0
  -23.4016    2.9139   12.2697 C   0  0  0  0  0  0  0  0  0  0  0  0
  -21.2307    2.0872   11.5441 O   0  0  0  0  0  0  0  0  0  0  0  0
  -23.8539    0.0720    6.2173 C   0  0  0  0  0  0  0  0  0  0  0  0
  -22.7865    2.2082    5.7197 C   0  0  0  0  0  0  0  0  0  0  0  0
  -23.6887    1.4555    6.4962 C   0  0  0  0  0  0  0  0  0  0  0  0
  -21.0204    2.2832   18.2210 N   0  0  0  0  0  0  0  0  0  0  0  0
  -22.0403    1.6057    4.7052 C   0  0  0  0  0  0  0  0  0  0  0  0
  -22.1864    0.2433    4.4453 C   0  0  0  0  0  0  0  0  0  0  0  0
  -23.0904   -0.5176    5.1922 C   0  0  0  0  0  0  0  0  0  0  0  0
  -22.2744    2.1697   18.6246 N   0  0  0  0  0  0  0  0  0  0  0  0
  -22.4469    1.5012    9.9800 O   0  0  0  0  0  0  0  0  0  0  0  0
  -23.5284    2.9083    8.4584 N   0  0  0  0  0  0  0  0  0  0  0  0
  -21.2421   -0.5092    3.1709 Cl  0  0  0  0  0  0  0  0  0  0  0  0
  -24.8349   -0.7829    6.9771 C   0  0  1  0  0  0  0  0  0  0  0  0
  -22.1437    2.3586   12.5844 C   0  0  0  0  0  0  0  0  0  0  0  0
  -21.8188    2.1280   13.9344 C   0  0  0  0  0  0  0  0  0  0  0  0
  -19.8903    1.6185   11.7158 C   0  0  2  0  0  0  0  0  0  0  0  0
  -18.9866    2.7338   12.2599 C   0  0  1  0  0  0  0  0  0  0  0  0
  -17.7048    2.2272   12.5953 O   0  0  0  0  0  0  0  0  0  0  0  0
  -17.6428    1.8399   13.9580 C   0  0  2  0  0  0  0  0  0  0  0  0
  -17.2654    3.0324   14.8505 C   0  0  1  0  0  0  0  0  0  0  0  0
  -18.6266    2.5575   16.9480 C   0  0  0  0  0  0  0  0  0  0  0  0
  -19.7949    2.5920   16.2409 N   0  0  0  0  0  0  0  0  0  0  0  0
  -20.9715    2.4360   16.8956 C   0  0  0  0  0  0  0  0  0  0  0  0
  -19.9047    2.2435   18.9893 C   0  0  0  0  0  0  0  0  0  0  0  0
  -18.6617    2.3742   18.3505 C   0  0  0  0  0  0  0  0  0  0  0  0
  -22.2490    2.4139   16.3804 C   0  0  0  0  0  0  0  0  0  0  0  0
  -23.0492    2.2542   17.5144 C   0  0  0  0  0  0  0  0  0  0  0  0
  -22.6734    2.5386   14.9671 C   0  0  0  0  0  0  0  0  0  0  0  0
  -23.9190    3.0939   14.6394 C   0  0  0  0  0  0  0  0  0  0  0  0
  -24.2776    3.2794   13.3019 C   0  0  0  0  0  0  0  0  0  0  0  0
  -24.5430    3.8648   10.7319 H   0  0  0  0  0  0  0  0  0  0  0  0
  -25.1623    2.8768    7.1276 H   0  0  0  0  0  0  0  0  0  0  0  0
  -25.0504    1.4808    8.2271 H   0  0  0  0  0  0  0  0  0  0  0  0
  -16.4822    2.6376   16.8268 H   0  0  0  0  0  0  0  0  0  0  0  0
  -22.6582    3.2677    5.9065 H   0  0  0  0  0  0  0  0  0  0  0  0
  -21.3482    2.1990    4.1187 H   0  0  0  0  0  0  0  0  0  0  0  0
  -23.1994   -1.5703    4.9668 H   0  0  0  0  0  0  0  0  0  0  0  0
  -23.0412    3.7446    8.0659 H   0  0  0  0  0  0  0  0  0  0  0  0
  -25.8718   -0.4566    6.7533 H   0  0  0  0  0  0  0  0  0  0  0  0
  -24.7554   -1.8530    6.6931 H   0  0  0  0  0  0  0  0  0  0  0  0
  -24.6439   -0.7003    8.0683 H   0  0  0  0  0  0  0  0  0  0  0  0
  -20.8972    1.6358   14.1868 H   0  0  0  0  0  0  0  0  0  0  0  0
  -19.4997    1.2988   10.7262 H   0  0  0  0  0  0  0  0  0  0  0  0
  -19.8770    0.7223   12.3718 H   0  0  0  0  0  0  0  0  0  0  0  0
  -18.8573    3.4930   11.4600 H   0  0  0  0  0  0  0  0  0  0  0  0
  -19.4767    3.2674   13.1042 H   0  0  0  0  0  0  0  0  0  0  0  0
  -16.8473    1.0712   14.0596 H   0  0  0  0  0  0  0  0  0  0  0  0
  -18.5795    1.3512   14.3013 H   0  0  0  0  0  0  0  0  0  0  0  0
  -17.9096    3.9122   14.6426 H   0  0  0  0  0  0  0  0  0  0  0  0
  -16.2195    3.3294   14.6194 H   0  0  0  0  0  0  0  0  0  0  0  0
  -19.9690    2.1032   20.0623 H   0  0  0  0  0  0  0  0  0  0  0  0
  -17.7470    2.3323   18.9305 H   0  0  0  0  0  0  0  0  0  0  0  0
  -24.1295    2.1888   17.5290 H   0  0  0  0  0  0  0  0  0  0  0  0
  -24.6076    3.4052   15.4154 H   0  0  0  0  0  0  0  0  0  0  0  0
  -25.2402    3.7171   13.0625 H   0  0  0  0  0  0  0  0  0  0  0  0
  1  3  1  0
  1  5  1  0
  8  9  1  0
  2  9  1  0
  7  9  2  0
  8 11  2  0
 11 12  1  0
 12 13  2  0
  7 13  1  0
 10 14  1  0
  3 15  2  0
  2 16  1  0
  3 16  1  0
 12 17  1  0
  7 18  1  0
  6 19  1  0
  5 19  2  0
 19 20  1  0
  6 21  1  0
 21 22  1  0
 22 23  1  0
 23 24  1  0
 24 25  1  0
  4 25  1  0
  4 26  1  0
 26 27  2  0
 27 28  1  0
 10 28  1  0
 10 29  1  0
 26 30  1  0
 29 30  2  0
 28 31  2  0
 31 32  1  0
 14 32  2  0
 20 33  2  0
 31 33  1  0
 33 34  1  0
  5 35  1  0
 34 35  2  0
  1 36  1  0
  2 37  1  6
  2 38  1  0
  4 39  1  0
  8 40  1  0
 11 41  1  0
 13 42  1  0
 16 43  1  0
 18 44  1  1
 18 45  1  0
 18 46  1  0
 20 47  1  0
 21 48  1  6
 21 49  1  0
 22 50  1  6
 22 51  1  0
 24 52  1  6
 24 53  1  0
 25 54  1  1
 25 55  1  0
 29 56  1  0
 30 57  1  0
 32 58  1  0
 34 59  1  0
 35 60  1  0
M  END
