1XOQ_ROF_B_501
     RDKit          3D

 26 28  0  0  0  0  0  0  0  0999 V2000
   19.7579   24.2817   75.4032 O   0  0  0  0  0  0  0  0  0  0  0  0
   23.0108   28.1392   80.2850 C   0  0  0  0  0  0  0  0  0  0  0  0
   22.7642   29.3514   79.3545 C   0  0  0  0  0  0  0  0  0  0  0  0
   21.8100   28.2254   79.5537 C   0  0  1  0  0  0  0  0  0  0  0  0
   18.5513   24.2528   75.6930 C   0  0  0  0  0  0  0  0  0  0  0  0
   18.0627   25.0978   76.8070 C   0  0  0  0  0  0  0  0  0  0  0  0
   16.7241   25.1358   77.2126 C   0  0  0  0  0  0  0  0  0  0  0  0
   16.3342   25.9589   78.2764 C   0  0  0  0  0  0  0  0  0  0  0  0
   17.2711   26.7552   78.9601 C   0  0  0  0  0  0  0  0  0  0  0  0
   16.9561   27.5897   80.0127 O   0  0  0  0  0  0  0  0  0  0  0  0
   15.6250   27.8169   80.4488 C   0  0  2  0  0  0  0  0  0  0  0  0
   15.1605   26.6587   80.9030 F   0  0  0  0  0  0  0  0  0  0  0  0
   14.8991   28.2876   79.4230 F   0  0  0  0  0  0  0  0  0  0  0  0
   18.6076   26.7083   78.5733 C   0  0  0  0  0  0  0  0  0  0  0  0
   19.5224   27.4939   79.2474 O   0  0  0  0  0  0  0  0  0  0  0  0
   20.8581   27.3862   78.7535 C   0  0  0  0  0  0  0  0  0  0  0  0
   18.9921   25.8857   77.4966 C   0  0  0  0  0  0  0  0  0  0  0  0
   17.7301   23.4759   74.9929 N   0  0  0  0  0  0  0  0  0  0  0  0
   18.1959   22.6360   73.9571 C   0  0  0  0  0  0  0  0  0  0  0  0
   17.3485   22.2773   72.8944 C   0  0  0  0  0  0  0  0  0  0  0  0
   15.7398   22.9165   72.8147 Cl  0  0  0  0  0  0  0  0  0  0  0  0
   17.8391   21.4268   71.9055 C   0  0  0  0  0  0  0  0  0  0  0  0
   19.0937   20.9457   71.9530 N   0  0  0  0  0  0  0  0  0  0  0  0
   19.9336   21.2663   72.9507 C   0  0  0  0  0  0  0  0  0  0  0  0
   19.4993   22.1076   73.9865 C   0  0  0  0  0  0  0  0  0  0  0  0
   20.5810   22.4668   75.2970 Cl  0  0  0  0  0  0  0  0  0  0  0  0
  2  3  1  0
  2  4  1  0
  3  4  1  0
  1  5  2  0
  5  6  1  0
  6  7  2  0
  7  8  1  0
  8  9  2  0
  9 10  1  0
 10 11  1  0
 11 12  1  6
 11 13  1  0
  9 14  1  0
 14 15  1  0
  4 16  1  6
 15 16  1  0
  6 17  1  0
 14 17  2  0
  5 18  1  0
 18 19  1  0
 19 20  2  0
 20 21  1  0
 20 22  1  0
 22 23  2  0
 23 24  1  0
 19 25  1  0
 24 25  2  0
 25 26  1  0
M  END
