
     RDKit          3D

 27 29  0  0  0  0  0  0  0  0999 V2000
   -8.4475   -0.3846   -0.5425 S   0  0  0  0  0  6  0  0  0  0  0  0
   -7.8843    0.0508    0.7165 O   0  0  0  0  0  0  0  0  0  0  0  0
   -9.8760   -0.4115   -0.7505 O   0  0  0  0  0  0  0  0  0  0  0  0
   -7.8307    0.5769   -1.6859 O   0  0  0  0  0  0  0  0  0  0  0  0
   -6.3192   -1.8192   -0.3468 P   0  0  1  0  0  5  0  0  0  0  0  0
   -6.1231   -2.1476    1.1036 O   0  0  0  0  0  0  0  0  0  0  0  0
   -5.6286   -2.9433   -1.2647 O   0  0  0  0  0  0  0  0  0  0  0  0
   -7.8087   -1.8193   -0.8821 O   0  0  0  0  0  0  0  0  0  0  0  0
   -5.6244   -0.4909   -0.9021 O   0  0  0  0  0  0  0  0  0  0  0  0
   -4.9958    0.3678    0.0379 C   0  0  0  0  0  0  0  0  0  0  0  0
   -4.2108    1.4512   -0.7067 C   0  0  1  0  0  0  0  0  0  0  0  0
   -3.0095    0.8625   -1.2695 O   0  0  0  0  0  0  0  0  0  0  0  0
   -5.0010    2.0384   -1.8764 C   0  0  1  0  0  0  0  0  0  0  0  0
   -4.5874    3.3944   -2.1099 O   0  0  0  0  0  0  0  0  0  0  0  0
   -4.5710    1.1757   -3.0518 C   0  0  1  0  0  0  0  0  0  0  0  0
   -4.7515    1.8814   -4.2827 O   0  0  0  0  0  0  0  0  0  0  0  0
   -3.1010    0.9370   -2.7040 C   0  0  2  0  0  0  0  0  0  0  0  0
   -2.5273   -0.2614   -3.2762 N   0  0  0  0  0  0  0  0  0  0  0  0
   -2.9045   -1.5414   -2.9571 C   0  0  0  0  0  0  0  0  0  0  0  0
   -2.2090   -2.4431   -3.6174 N   0  0  0  0  0  0  0  0  0  0  0  0
   -1.3585   -1.7082   -4.4203 C   0  0  0  0  0  0  0  0  0  0  0  0
   -0.3795   -2.0855   -5.3560 C   0  0  0  0  0  0  0  0  0  0  0  0
   -0.0933   -3.4086   -5.6625 N   0  0  0  0  0  0  0  0  0  0  0  0
    0.3429   -1.1157   -5.9617 N   0  0  0  0  0  0  0  0  0  0  0  0
    0.0705    0.1705   -5.6537 C   0  0  0  0  0  0  0  0  0  0  0  0
   -0.8239    0.6531   -4.7658 N   0  0  0  0  0  0  0  0  0  0  0  0
   -1.5213   -0.3481   -4.2003 C   0  0  0  0  0  0  0  0  0  0  0  0
  1  2  2  0
  1  3  2  0
  1  4  1  0
  5  6  2  0
  5  7  1  6
  1  8  1  0
  5  8  1  0
  5  9  1  0
  9 10  1  0
 11 10  1  6
 11 12  1  0
 11 13  1  0
 13 14  1  6
 13 15  1  0
 15 16  1  6
 12 17  1  0
 15 17  1  0
 17 18  1  6
 18 19  4  0
 19 20  4  0
 20 21  4  0
 21 22  4  0
 22 23  1  0
 22 24  4  0
 24 25  4  0
 25 26  4  0
 18 27  4  0
 21 27  4  0
 26 27  4  0
M  END
