6XAF_GDP_B_1602
     RDKit          3D

 28 30  0  0  0  0  0  0  0  0999 V2000
   14.3528   -5.6300   11.8853 P   0  0  2  0  0  0  0  0  0  0  0  0
   13.7940   -4.2296   11.9148 O   0  0  0  0  0  0  0  0  0  0  0  0
   15.0553   -5.8390   10.5537 O   0  0  0  0  0  0  0  0  0  0  0  0
   13.3508   -6.7331   12.1871 O   0  0  0  0  0  0  0  0  0  0  0  0
   15.5415   -5.7904   12.9898 O   0  0  0  0  0  0  0  0  0  0  0  0
   15.6675   -4.9963   14.4101 P   0  0  1  0  0  0  0  0  0  0  0  0
   15.9688   -3.5451   14.1361 O   0  0  0  0  0  0  0  0  0  0  0  0
   14.4494   -5.2779   15.2479 O   0  0  0  0  0  0  0  0  0  0  0  0
   16.9874   -5.6333   15.1120 O   0  0  0  0  0  0  0  0  0  0  0  0
   17.1827   -7.0178   15.1603 C   0  0  0  0  0  0  0  0  0  0  0  0
   18.3753   -7.2943   16.0186 C   0  0  1  0  0  0  0  0  0  0  0  0
   19.4625   -6.7702   15.5115 O   0  0  0  0  0  0  0  0  0  0  0  0
   18.1992   -6.6253   17.5292 C   0  0  1  0  0  0  0  0  0  0  0  0
   18.8251   -7.6278   18.4211 O   0  0  0  0  0  0  0  0  0  0  0  0
   18.8464   -5.5595   17.4754 C   0  0  1  0  0  0  0  0  0  0  0  0
   19.3992   -5.1392   18.7877 O   0  0  0  0  0  0  0  0  0  0  0  0
   20.1217   -5.8925   16.5489 C   0  0  2  0  0  0  0  0  0  0  0  0
   20.6170   -4.8202   15.9405 N   0  0  0  0  0  0  0  0  0  0  0  0
   20.1621   -3.9828   14.9840 C   0  0  0  0  0  0  0  0  0  0  0  0
   21.1099   -3.0684   14.7101 N   0  0  0  0  0  0  0  0  0  0  0  0
   22.1557   -3.3232   15.4762 C   0  0  0  0  0  0  0  0  0  0  0  0
   23.5222   -2.6311   15.6088 C   0  0  0  0  0  0  0  0  0  0  0  0
   23.8400   -1.6844   14.9653 O   0  0  0  0  0  0  0  0  0  0  0  0
   24.4684   -3.1301   16.5396 N   0  0  0  0  0  0  0  0  0  0  0  0
   24.1333   -4.2759   17.3298 C   0  0  0  0  0  0  0  0  0  0  0  0
   25.1090   -4.7827   18.2489 N   0  0  0  0  0  0  0  0  0  0  0  0
   22.8527   -4.9355   17.1952 N   0  0  0  0  0  0  0  0  0  0  0  0
   21.8525   -4.4251   16.2403 C   0  0  0  0  0  0  0  0  0  0  0  0
  1  2  2  0
  1  3  1  6
  1  4  1  0
  1  5  1  0
  5  6  1  0
  6  7  2  0
  6  8  1  1
  6  9  1  0
  9 10  1  0
 11 10  1  6
 11 12  1  0
 11 13  1  0
 13 14  1  1
 13 15  1  0
 15 16  1  1
 12 17  1  0
 15 17  1  0
 17 18  1  6
 18 19  1  0
 19 20  2  0
 20 21  1  0
 21 22  1  0
 22 23  2  0
 22 24  1  0
 24 25  1  0
 25 26  1  0
 25 27  2  0
 18 28  1  0
 21 28  2  0
 27 28  1  0
M  END
