1JD0_AZM_B_2401
     RDKit          3D

 13 13  0  0  0  0  0  0  0  0999 V2000
  -13.3730   -6.7640   21.1270 C   0  0  0  0  0  0  0  0  0  0  0  0
  -15.2340   -5.5800   20.6200 C   0  0  0  0  0  0  0  0  0  0  0  0
  -17.6860   -5.3980   20.2930 C   0  0  0  0  0  0  0  0  0  0  0  0
  -17.8640   -6.8770   20.5800 C   0  0  0  0  0  0  0  0  0  0  0  0
  -11.0910   -7.8990   20.3810 N   0  0  0  0  0  0  0  0  0  0  0  0
  -14.1830   -4.8330   20.5410 N   0  0  0  0  0  0  0  0  0  0  0  0
  -13.0520   -5.5400   20.8440 N   0  0  0  0  0  0  0  0  0  0  0  0
  -16.3850   -4.9120   20.3180 N   0  0  0  0  0  0  0  0  0  0  0  0
  -12.8010   -9.2720   21.6180 O   0  0  0  0  0  0  0  0  0  0  0  0
  -11.6250   -7.6290   22.8930 O   0  0  0  0  0  0  0  0  0  0  0  0
  -18.6970   -4.7370   20.0460 O   0  0  0  0  0  0  0  0  0  0  0  0
  -12.1460   -7.9640   21.5690 S   0  0  0  0  0  0  0  0  0  0  0  0
  -15.0170   -7.1920   21.0630 S   0  0  0  0  0  0  0  0  0  0  0  0
  3  4  1  0
  2  6  2  0
  1  7  2  0
  6  7  1  0
  2  8  1  0
  3  8  1  0
  3 11  2  0
  1 12  1  0
  5 12  1  0
  9 12  2  0
 10 12  2  0
  1 13  1  0
  2 13  1  0
M  END
$$$$
1JD0_AZM_A_1400
     RDKit          3D

 13 13  0  0  0  0  0  0  0  0999 V2000
   17.7910    5.5370   25.4360 C   0  0  0  0  0  0  0  0  0  0  0  0
   18.3440    7.6770   25.9060 C   0  0  0  0  0  0  0  0  0  0  0  0
   20.0180    9.4550   25.9800 C   0  0  0  0  0  0  0  0  0  0  0  0
   21.1630    8.5180   26.3180 C   0  0  0  0  0  0  0  0  0  0  0  0
   16.9530    3.1160   26.1670 N   0  0  0  0  0  0  0  0  0  0  0  0
   17.0840    7.4740   26.1280 N   0  0  0  0  0  0  0  0  0  0  0  0
   16.7400    6.1820   25.8430 N   0  0  0  0  0  0  0  0  0  0  0  0
   18.7460    8.9460   26.1660 N   0  0  0  0  0  0  0  0  0  0  0  0
   19.0790    3.3380   24.8410 O   0  0  0  0  0  0  0  0  0  0  0  0
   17.0690    3.7740   23.6530 O   0  0  0  0  0  0  0  0  0  0  0  0
   20.2920   10.5820   25.5720 O   0  0  0  0  0  0  0  0  0  0  0  0
   17.7110    3.8300   24.9650 S   0  0  0  0  0  0  0  0  0  0  0  0
   19.2630    6.3840   25.3560 S   0  0  0  0  0  0  0  0  0  0  0  0
  3  4  1  0
  2  6  2  0
  1  7  2  0
  6  7  1  0
  2  8  1  0
  3  8  1  0
  3 11  2  0
  1 12  1  0
  5 12  1  0
  9 12  2  0
 10 12  2  0
  1 13  1  0
  2 13  1  0
M  END
$$$$
