1HQ2_PH2_A_181
     RDKit          3D

 23 24  0  0  0  0  0  0  0  0999 V2000
   -8.4947    8.3782   18.1742 N   0  0  0  0  0  0  0  0  0  0  0  0
   -7.5176    7.8311   18.8103 C   0  0  0  0  0  0  0  0  0  0  0  0
   -6.6206    6.7969   17.9601 C   0  0  0  0  0  0  0  0  0  0  0  0
   -6.9703    6.6005   16.6732 N   0  0  0  0  0  0  0  0  0  0  0  0
   -8.3065    6.9959   14.8488 N   0  0  0  0  0  0  0  0  0  0  0  0
   -9.3579    7.5850   14.1607 C   0  0  0  0  0  0  0  0  0  0  0  0
   -9.5947    7.3392   12.9849 N   0  0  0  0  0  0  0  0  0  0  0  0
  -10.0856    8.4521   14.9262 N   0  0  0  0  0  4  0  0  0  0  0  0
   -9.9177    8.7795   16.1734 C   0  0  0  0  0  0  0  0  0  0  0  0
  -10.6201    9.5746   16.8000 O   0  0  0  0  0  0  0  0  0  0  0  0
   -8.8209    8.1252   16.7806 C   0  0  0  0  0  0  0  0  0  0  0  0
   -8.0411    7.2303   16.0560 C   0  0  0  0  0  0  0  0  0  0  0  0
   -7.1161    8.0186   20.1881 C   0  0  0  0  0  0  0  0  0  0  0  0
   -7.5969    9.2533   20.6965 O   0  0  0  0  0  0  0  0  0  0  0  0
   -5.6136    7.1587   17.9698 H   0  0  0  0  0  0  0  0  0  0  0  0
   -6.7627    5.8487   18.4353 H   0  0  0  0  0  0  0  0  0  0  0  0
   -6.4330    5.9721   16.1388 H   0  0  0  0  0  0  0  0  0  0  0  0
   -9.0287    6.7026   12.4914 H   0  0  0  0  0  0  0  0  0  0  0  0
  -10.3511    7.7783   12.5329 H   0  0  0  0  0  0  0  0  0  0  0  0
  -10.8410    8.8892   14.4706 H   0  0  0  0  0  0  0  0  0  0  0  0
   -7.5117    7.2194   20.7793 H   0  0  0  0  0  0  0  0  0  0  0  0
   -6.0470    8.0257   20.2327 H   0  0  0  0  0  0  0  0  0  0  0  0
   -8.5663    9.2615   20.6623 H   0  0  0  0  0  0  0  0  0  0  0  0
  1  2  2  0
  2  3  1  0
  3  4  1  0
  5  6  4  0
  6  7  1  0
  6  8  4  0
  8  9  4  0
  9 10  2  0
  1 11  1  0
  9 11  4  0
  4 12  1  0
  5 12  4  0
 11 12  4  0
  2 13  1  0
 13 14  1  0
  3 15  1  0
  3 16  1  0
  4 17  1  0
  7 18  1  0
  7 19  1  0
  8 20  1  0
 13 21  1  0
 13 22  1  0
 14 23  1  0
M  CHG  1   8   1
M  END
