8BRO_R7E_A_201
     RDKit          3D

 48 50  0  0  0  0  0  0  0  0999 V2000
    8.5400    7.5901    9.7590 N   0  0  0  0  0  0  0  0  0  0  0  0
    5.8769    4.9351   11.2637 C   0  0  2  0  0  0  0  0  0  0  0  0
    5.8688    5.8424    9.9925 C   0  0  2  0  0  0  0  0  0  0  0  0
    6.6212    5.2642    8.7786 C   0  0  1  0  0  0  0  0  0  0  0  0
    9.7911    8.2556    9.9885 C   0  0  0  0  0  0  0  0  0  0  0  0
   10.8446    8.2138    8.9639 C   0  0  0  0  0  0  0  0  0  0  0  0
   12.7461    8.4721    7.8862 C   0  0  0  0  0  0  0  0  0  0  0  0
   10.9546    6.6016    5.0950 C   0  0  0  0  0  0  0  0  0  0  0  0
   12.3503    6.2166    3.1512 C   0  0  0  0  0  0  0  0  0  0  0  0
   13.2522    7.3737    5.0783 C   0  0  0  0  0  0  0  0  0  0  0  0
    7.5621    7.3385   10.8234 C   0  0  1  0  0  0  0  0  0  0  0  0
    6.2553    7.1852   10.2664 O   0  0  0  0  0  0  0  0  0  0  0  0
    6.7858    5.5026   12.3698 C   0  0  1  0  0  0  0  0  0  0  0  0
    7.1920    4.4897   13.2549 O   0  0  0  0  0  0  0  0  0  0  0  0
    8.0134    6.1662   11.7413 C   0  0  2  0  0  0  0  0  0  0  0  0
    8.9039    6.6107   12.7360 O   0  0  0  0  0  0  0  0  0  0  0  0
    6.2678    3.6200   10.9503 O   0  0  0  0  0  0  0  0  0  0  0  0
    9.9898    8.8894   11.0597 O   0  0  0  0  0  0  0  0  0  0  0  0
   10.7040    7.6427    7.7905 O   0  0  0  0  0  0  0  0  0  0  0  0
   11.8245    7.7777    7.1162 C   0  0  0  0  0  0  0  0  0  0  0  0
   12.1115    8.7519    9.0778 C   0  0  0  0  0  0  0  0  0  0  0  0
   12.0203    7.2482    5.7465 C   0  0  0  0  0  0  0  0  0  0  0  0
   13.4130    6.8576    3.7900 C   0  0  0  0  0  0  0  0  0  0  0  0
   11.1100    6.0962    3.7942 C   0  0  0  0  0  0  0  0  0  0  0  0
    9.9758    5.3735    3.1212 C   0  0  1  0  0  0  0  0  0  0  0  0
   10.0914    3.9382    3.3564 N   0  0  0  0  0  0  0  0  0  0  0  0
    8.2788    7.3725    8.7722 H   0  0  0  0  0  0  0  0  0  0  0  0
    4.8444    4.9124   11.6888 H   0  0  0  0  0  0  0  0  0  0  0  0
    4.8075    5.8937    9.6638 H   0  0  0  0  0  0  0  0  0  0  0  0
    6.0273    4.4514    8.3100 H   0  0  0  0  0  0  0  0  0  0  0  0
    6.7632    6.0550    8.0121 H   0  0  0  0  0  0  0  0  0  0  0  0
    7.6099    4.8539    9.0657 H   0  0  0  0  0  0  0  0  0  0  0  0
   13.7591    8.7463    7.6272 H   0  0  0  0  0  0  0  0  0  0  0  0
   10.0012    6.4874    5.5979 H   0  0  0  0  0  0  0  0  0  0  0  0
   12.4937    5.8143    2.1560 H   0  0  0  0  0  0  0  0  0  0  0  0
   14.0948    7.8648    5.5444 H   0  0  0  0  0  0  0  0  0  0  0  0
    7.5055    8.2561   11.4487 H   0  0  0  0  0  0  0  0  0  0  0  0
    6.2216    6.2823   12.9364 H   0  0  0  0  0  0  0  0  0  0  0  0
    6.3744    4.1784   13.7248 H   0  0  0  0  0  0  0  0  0  0  0  0
    8.5502    5.4050   11.1346 H   0  0  0  0  0  0  0  0  0  0  0  0
    8.4810    6.4479   13.6197 H   0  0  0  0  0  0  0  0  0  0  0  0
    6.1413    3.5084    9.9718 H   0  0  0  0  0  0  0  0  0  0  0  0
   12.5260    9.2829    9.9246 H   0  0  0  0  0  0  0  0  0  0  0  0
   14.3663    6.9525    3.2860 H   0  0  0  0  0  0  0  0  0  0  0  0
    8.9973    5.7438    3.5024 H   0  0  0  0  0  0  0  0  0  0  0  0
   10.0010    5.5711    2.0269 H   0  0  0  0  0  0  0  0  0  0  0  0
    9.1495    3.5754    3.6322 H   0  0  0  0  0  0  0  0  0  0  0  0
   10.3283    3.4847    2.4445 H   0  0  0  0  0  0  0  0  0  0  0  0
  2  3  1  0
  3  4  1  0
  1  5  1  0
  5  6  1  0
 11  1  1  0
  3 12  1  0
 11 12  1  0
  2 13  1  0
 13 14  1  0
 13 15  1  0
 11 15  1  0
 15 16  1  0
  2 17  1  0
  5 18  2  0
  6 19  1  0
 19 20  1  0
  7 20  2  0
  6 21  2  0
  7 21  1  0
 20 22  1  0
 10 22  1  0
  8 22  2  0
 10 23  2  0
  9 23  1  0
  8 24  1  0
  9 24  2  0
 24 25  1  0
 25 26  1  0
  1 27  1  0
  2 28  1  1
  3 29  1  6
  4 30  1  6
  4 31  1  0
  4 32  1  0
  7 33  1  0
  8 34  1  0
  9 35  1  0
 10 36  1  0
 11 37  1  1
 13 38  1  1
 14 39  1  0
 15 40  1  6
 16 41  1  0
 17 42  1  0
 21 43  1  0
 23 44  1  0
 25 45  1  1
 25 46  1  0
 26 47  1  0
 26 48  1  0
M  END
