7WDT_NGS_A_901
     RDKit          3D

 34 34  0  0  0  0  0  0  0  0999 V2000
    0.3911   -1.4308    0.2458 C   0  0  2  0  0  0  0  0  0  0  0  0
    0.5592   -0.1899   -0.6591 C   0  0  1  0  0  0  0  0  0  0  0  0
    1.4254    0.8880    0.0399 C   0  0  2  0  0  0  0  0  0  0  0  0
    2.3631    0.2754    1.1072 C   0  0  1  0  0  0  0  0  0  0  0  0
    2.7411   -1.1797    0.7228 C   0  0  1  0  0  0  0  0  0  0  0  0
    3.7137   -1.7939    1.7416 C   0  0  0  0  0  0  0  0  0  0  0  0
   -0.3370   -1.0862    1.3954 O   0  0  0  0  0  0  0  0  0  0  0  0
    0.5819    1.8360    0.6446 O   0  0  0  0  0  0  0  0  0  0  0  0
    1.6176   -2.0520    0.6198 O   0  0  0  0  0  0  0  0  0  0  0  0
    4.6481   -0.8277    2.1627 O   0  0  0  0  0  0  0  0  0  0  0  0
    1.1459   -0.5765   -1.9502 N   0  0  0  0  0  0  0  0  0  0  0  0
    1.9989   -1.7212   -2.0915 C   0  0  0  0  0  0  0  0  0  0  0  0
    2.3855   -2.3597   -1.0753 O   0  0  0  0  0  0  0  0  0  0  0  0
    2.4617   -2.1423   -3.4479 C   0  0  0  0  0  0  0  0  0  0  0  0
    3.8739    0.6783    2.2345 S   0  0  2  0  0  6  0  0  0  0  0  0
    4.3959    1.4710    3.4005 O   0  0  0  0  0  0  0  0  0  0  0  0
    2.2253    0.4311    2.4458 O   0  0  0  0  0  0  0  0  0  0  0  0
    4.0938    1.4484    0.9615 O   0  0  0  0  0  0  0  0  0  0  0  0
    3.5212    1.0637    1.2185 O   0  0  0  0  0  0  0  0  0  0  0  0
   -0.2030   -2.1775   -0.3289 H   0  0  0  0  0  0  0  0  0  0  0  0
   -0.4582    0.2191   -0.8551 H   0  0  0  0  0  0  0  0  0  0  0  0
    2.0468    1.3991   -0.7337 H   0  0  0  0  0  0  0  0  0  0  0  0
    1.8386    0.2410    2.0922 H   0  0  0  0  0  0  0  0  0  0  0  0
    3.2592   -1.1653   -0.2623 H   0  0  0  0  0  0  0  0  0  0  0  0
    3.1290   -2.1936    2.6012 H   0  0  0  0  0  0  0  0  0  0  0  0
    4.2472   -2.6367    1.2471 H   0  0  0  0  0  0  0  0  0  0  0  0
   -0.5230   -1.9346    1.8761 H   0  0  0  0  0  0  0  0  0  0  0  0
    1.1255    2.6526    0.7974 H   0  0  0  0  0  0  0  0  0  0  0  0
    0.9981    0.0297   -2.7894 H   0  0  0  0  0  0  0  0  0  0  0  0
    1.5962   -2.1862   -4.1416 H   0  0  0  0  0  0  0  0  0  0  0  0
    2.9361   -3.1457   -3.4042 H   0  0  0  0  0  0  0  0  0  0  0  0
    3.2004   -1.4078   -3.8306 H   0  0  0  0  0  0  0  0  0  0  0  0
    1.9725   -0.2109    1.7351 H   0  0  0  0  0  0  0  0  0  0  0  0
    3.2823    1.8506    1.7745 H   0  0  0  0  0  0  0  0  0  0  0  0
  1  2  1  0
  2  3  1  0
  3  4  1  0
  4  5  1  0
  5  6  1  0
  1  7  1  0
  3  8  1  0
  1  9  1  0
  5  9  1  0
  6 10  1  0
  2 11  1  0
 11 12  1  0
 12 13  2  0
 12 14  1  0
 15 10  1  6
 15 16  2  0
 15 17  1  0
 15 18  2  0
  4 19  1  0
  1 20  1  6
  2 21  1  6
  3 22  1  6
  4 23  1  1
  5 24  1  6
  6 25  1  0
  6 26  1  0
  7 27  1  0
  8 28  1  0
 11 29  1  0
 14 30  1  0
 14 31  1  0
 14 32  1  0
 17 33  1  0
 19 34  1  0
M  END
