
     RDKit          3D

 23 25  0  0  0  0  0  0  0  0999 V2000
  -14.9394   35.2971   44.7873 N   0  0  0  0  0  0  0  0  0  0  0  0
  -18.5905   37.0909   41.6165 C   0  0  0  0  0  0  0  0  0  0  0  0
  -18.7654   37.6002   42.9093 C   0  0  0  0  0  0  0  0  0  0  0  0
  -18.0292   37.0961   43.9934 C   0  0  0  0  0  0  0  0  0  0  0  0
  -17.1075   36.0457   43.7764 C   0  0  0  0  0  0  0  0  0  0  0  0
  -16.2933   35.4884   44.8556 C   0  0  0  0  0  0  0  0  0  0  0  0
  -16.9452   35.5359   42.4771 C   0  0  0  0  0  0  0  0  0  0  0  0
  -19.5322   38.3994   45.3327 C   0  0  0  0  0  0  0  0  0  0  0  0
  -18.7363   34.9293   39.2999 O   0  0  0  0  0  0  0  0  0  0  0  0
  -20.7628   37.5578   45.5006 C   0  0  0  0  0  0  0  0  0  0  0  0
  -22.3940   35.8701   46.2522 C   0  0  0  0  0  0  0  0  0  0  0  0
  -22.8906   36.6470   45.2298 C   0  0  0  0  0  0  0  0  0  0  0  0
  -15.5508   34.6402   46.6977 N   0  0  0  0  0  0  0  0  0  0  0  0
  -21.9479   37.6224   44.7935 C   0  0  0  0  0  0  0  0  0  0  0  0
  -14.4773   34.7875   45.9350 N   0  0  0  0  0  0  0  0  0  0  0  0
  -19.5516   37.7941   40.3668 Cl  0  0  0  0  0  0  0  0  0  0  0  0
  -16.6838   35.0657   46.0437 N   0  0  0  0  0  0  0  0  0  0  0  0
  -17.6804   36.0565   41.4026 C   0  0  0  0  0  0  0  0  0  0  0  0
  -17.4610   35.4065   39.7788 S   0  0  1  0  0  6  0  0  0  0  0  0
  -16.5339   34.0182   39.9852 N   0  0  0  0  0  0  0  0  0  0  0  0
  -16.6131   36.3059   39.0335 O   0  0  0  0  0  0  0  0  0  0  0  0
  -18.3029   37.5726   45.3063 N   0  0  0  0  0  0  0  0  0  0  0  0
  -20.7997   36.3147   46.6801 S   0  0  0  0  0  0  0  0  0  0  0  0
  2  3  4  0
  3  4  4  0
  4  5  4  0
  5  6  1  0
  1  6  4  0
  5  7  4  0
  8 10  1  0
 11 12  4  0
 12 14  4  0
 10 14  4  0
  1 15  4  0
 13 15  4  0
  2 16  1  0
  6 17  4  0
 13 17  4  0
  2 18  4  0
  7 18  4  0
  9 19  2  0
 18 19  1  0
 19 20  1  1
 19 21  2  0
  4 22  1  0
  8 22  1  0
 10 23  4  0
 11 23  4  0
M  END
