7B2C_TP7_A_1204
     RDKit          3D

 21 20  0  0  0  0  0  0  0  0999 V2000
   -9.2424   -8.3553   30.6559 N   0  0  0  0  0  0  0  0  0  0  0  0
  -13.3996   -9.2088   31.1412 P   0  0  2  0  0  0  0  0  0  0  0  0
  -13.7971  -10.4367   30.3550 O   0  0  0  0  0  0  0  0  0  0  0  0
  -13.5635   -9.3351   32.6368 O   0  0  0  0  0  0  0  0  0  0  0  0
  -13.9475   -7.8981   30.5965 O   0  0  0  0  0  0  0  0  0  0  0  0
  -11.8179   -9.0508   30.8887 O   0  0  0  0  0  0  0  0  0  0  0  0
  -10.9005   -9.8597   31.6456 C   0  0  1  0  0  0  0  0  0  0  0  0
   -9.1774  -10.7086   29.9759 C   0  0  0  0  0  0  0  0  0  0  0  0
   -9.0989  -10.2902   28.8046 O   0  0  0  0  0  0  0  0  0  0  0  0
   -9.0137  -11.9232   30.2646 O   0  0  0  0  0  0  0  0  0  0  0  0
   -9.4782   -9.7228   31.0807 C   0  0  1  0  0  0  0  0  0  0  0  0
  -10.9546   -9.4349   33.1221 C   0  0  0  0  0  0  0  0  0  0  0  0
   -8.4609   -7.6837   32.6246 O   0  0  0  0  0  0  0  0  0  0  0  0
   -8.5618   -7.5218   31.4164 C   0  0  0  0  0  0  0  0  0  0  0  0
   -7.9081   -6.3610   30.7005 C   0  0  0  0  0  0  0  0  0  0  0  0
   -6.4207   -6.2743   31.0310 C   0  0  0  0  0  0  0  0  0  0  0  0
   -5.7410   -5.1551   30.2491 C   0  0  0  0  0  0  0  0  0  0  0  0
   -6.2513   -3.7750   30.6652 C   0  0  0  0  0  0  0  0  0  0  0  0
   -5.8258   -3.4108   32.0929 C   0  0  0  0  0  0  0  0  0  0  0  0
   -5.9261   -1.9125   32.3494 C   0  0  0  0  0  0  0  0  0  0  0  0
   -5.1380   -1.5496   33.9617 S   0  0  0  0  0  0  0  0  0  0  0  0
  2  3  2  0
  2  4  1  1
  2  5  1  0
  2  6  1  0
  6  7  1  0
  8  9  1  0
  8 10  2  0
 11  1  1  6
  7 11  1  0
  8 11  1  0
  7 12  1  1
  1 14  1  0
 13 14  2  0
 14 15  1  0
 15 16  1  0
 16 17  1  0
 17 18  1  0
 18 19  1  0
 19 20  1  0
 20 21  1  0
M  END
