7BNH_BEZ_A_501
     RDKit          3D

  9  9  0  0  0  0  0  0  0  0999 V2000
   -4.8076   22.0418    2.9383 C   0  0  0  0  0  0  0  0  0  0  0  0
   -4.9736   23.0149    3.7179 O   0  0  0  0  0  0  0  0  0  0  0  0
   -3.8878   22.2081    1.9168 O   0  0  0  0  0  0  0  0  0  0  0  0
   -5.5706   20.8142    3.1391 C   0  0  0  0  0  0  0  0  0  0  0  0
   -6.3313   20.7324    4.2928 C   0  0  0  0  0  0  0  0  0  0  0  0
   -7.0554   19.5539    4.4720 C   0  0  0  0  0  0  0  0  0  0  0  0
   -7.0108   18.5339    3.5489 C   0  0  0  0  0  0  0  0  0  0  0  0
   -6.2422   18.6438    2.4058 C   0  0  0  0  0  0  0  0  0  0  0  0
   -5.5160   19.8018    2.2061 C   0  0  0  0  0  0  0  0  0  0  0  0
  1  2  2  0
  1  3  1  0
  1  4  1  0
  4  5  2  0
  5  6  1  0
  6  7  2  0
  7  8  1  0
  4  9  1  0
  8  9  2  0
M  END
$$$$
