7P4C_5OV_AAA_905
     RDKit          3D

 29 30  0  0  0  0  0  0  0  0999 V2000
   84.0241   15.1702   33.9700 C   0  0  1  0  0  0  0  0  0  0  0  0
   83.7154   14.0256   34.9475 C   0  0  2  0  0  0  0  0  0  0  0  0
   83.6121   14.4764   36.3948 C   0  0  2  0  0  0  0  0  0  0  0  0
   83.1275   13.2998   37.2269 C   0  0  0  0  0  0  0  0  0  0  0  0
   82.7962   15.7623   36.6239 C   0  0  2  0  0  0  0  0  0  0  0  0
   83.2914   16.8599   35.7251 C   0  0  1  0  0  0  0  0  0  0  0  0
   83.1912   16.4189   34.2551 C   0  0  1  0  0  0  0  0  0  0  0  0
   85.4576   15.3381   34.1608 N   0  0  0  0  0  0  0  0  0  0  0  0
   86.5997   13.4022   33.1875 O   0  0  0  0  0  0  0  0  0  0  0  0
   86.1213   13.8816   34.4515 S   0  0  1  0  0  6  0  0  0  0  0  0
   86.9912   13.8778   35.5726 O   0  0  0  0  0  0  0  0  0  0  0  0
   84.8141   13.0926   34.8523 O   0  0  0  0  0  0  0  0  0  0  0  0
   82.5204   12.3133   36.3941 O   0  0  0  0  0  0  0  0  0  0  0  0
   82.8644   16.1912   37.9881 O   0  0  0  0  0  0  0  0  0  0  0  0
   82.5026   18.0537   35.9151 O   0  0  0  0  0  0  0  0  0  0  0  0
   83.5994   17.4845   33.4012 O   0  0  0  0  0  0  0  0  0  0  0  0
   83.7691   14.9695   32.9505 H   0  0  0  0  0  0  0  0  0  0  0  0
   82.7677   13.6057   34.6819 H   0  0  0  0  0  0  0  0  0  0  0  0
   84.5893   14.7714   36.7158 H   0  0  0  0  0  0  0  0  0  0  0  0
   82.4106   13.6461   37.9419 H   0  0  0  0  0  0  0  0  0  0  0  0
   83.9659   12.8615   37.7267 H   0  0  0  0  0  0  0  0  0  0  0  0
   81.7750   15.5426   36.3920 H   0  0  0  0  0  0  0  0  0  0  0  0
   84.3123   17.0663   35.9703 H   0  0  0  0  0  0  0  0  0  0  0  0
   82.1684   16.1713   34.0612 H   0  0  0  0  0  0  0  0  0  0  0  0
   85.6279   15.9569   34.9535 H   0  0  0  0  0  0  0  0  0  0  0  0
   81.7584   12.7012   35.9361 H   0  0  0  0  0  0  0  0  0  0  0  0
   83.7846   16.3953   38.2172 H   0  0  0  0  0  0  0  0  0  0  0  0
   81.5767   17.8681   35.6931 H   0  0  0  0  0  0  0  0  0  0  0  0
   84.5267   17.7055   33.5806 H   0  0  0  0  0  0  0  0  0  0  0  0
  1  2  1  0
  2  3  1  0
  3  4  1  0
  3  5  1  0
  5  6  1  0
  1  7  1  0
  6  7  1  0
  1  8  1  0
  9 10  2  0
  8 10  1  0
 10 11  2  0
 10 12  1  1
  2 12  1  0
  4 13  1  0
  5 14  1  0
  6 15  1  0
  7 16  1  0
  1 17  1  6
  2 18  1  6
  3 19  1  1
  4 20  1  0
  4 21  1  0
  5 22  1  6
  6 23  1  1
  7 24  1  6
  8 25  1  0
 13 26  1  0
 14 27  1  0
 15 28  1  0
 16 29  1  0
M  END
