1OPK_P16_A_2
     RDKit          3D

 45 48  0  0  0  0  0  0  0  0999 V2000
    0.4075    8.4592   -1.0717 O   0  0  0  0  0  0  0  0  0  0  0  0
    0.6942    9.8284   -1.0253 C   0  0  0  0  0  0  0  0  0  0  0  0
   -0.5595   10.6078   -1.2992 C   0  0  0  0  0  0  0  0  0  0  0  0
   -1.4569   10.8931   -0.2590 C   0  0  0  0  0  0  0  0  0  0  0  0
   -2.6458   11.5768   -0.5243 C   0  0  0  0  0  0  0  0  0  0  0  0
   -2.9477   11.9806   -1.8272 C   0  0  0  0  0  0  0  0  0  0  0  0
   -2.0586   11.7117   -2.8778 C   0  0  0  0  0  0  0  0  0  0  0  0
   -2.4003   12.1214   -4.2132 N   0  0  0  0  0  0  0  0  0  0  0  0
   -1.8491   11.5319   -5.3996 C   0  0  0  0  0  0  0  0  0  0  0  0
   -2.1749   12.0425   -6.6165 N   0  0  0  0  0  0  0  0  0  0  0  0
   -1.6517   11.5270   -7.7584 C   0  0  0  0  0  0  0  0  0  0  0  0
   -0.7550   10.4559   -7.6920 C   0  0  0  0  0  0  0  0  0  0  0  0
   -0.1873    9.9052   -8.8391 C   0  0  0  0  0  0  0  0  0  0  0  0
    0.7211    8.8512   -8.7248 C   0  0  0  0  0  0  0  0  0  0  0  0
    1.0454    8.3533   -7.4482 C   0  0  0  0  0  0  0  0  0  0  0  0
    1.8921    7.4211   -7.3489 O   0  0  0  0  0  0  0  0  0  0  0  0
    0.4552    8.8790   -6.3222 N   0  0  0  0  0  4  0  0  0  0  0  0
   -0.4176    9.9350   -6.4287 C   0  0  0  0  0  0  0  0  0  0  0  0
   -0.9692   10.4975   -5.3180 N   0  0  0  0  0  0  0  0  0  0  0  0
    0.8093    8.3595   -4.9892 C   0  0  0  0  0  0  0  0  0  0  0  0
    1.3327    8.2816   -9.9464 C   0  0  0  0  0  0  0  0  0  0  0  0
    1.2257    8.9593  -11.1796 C   0  0  0  0  0  0  0  0  0  0  0  0
    0.3917   10.5049  -11.3115 Cl  0  0  0  0  0  0  0  0  0  0  0  0
    1.8079    8.4144  -12.3294 C   0  0  0  0  0  0  0  0  0  0  0  0
    2.4966    7.2023  -12.2634 C   0  0  0  0  0  0  0  0  0  0  0  0
    2.6091    6.5265  -11.0475 C   0  0  0  0  0  0  0  0  0  0  0  0
    2.0328    7.0576   -9.8883 C   0  0  0  0  0  0  0  0  0  0  0  0
    2.1841    6.1542   -8.3842 Cl  0  0  0  0  0  0  0  0  0  0  0  0
   -0.8767   10.9963   -2.6106 C   0  0  0  0  0  0  0  0  0  0  0  0
    1.2641    7.9924   -0.8894 H   0  0  0  0  0  0  0  0  0  0  0  0
    1.4695   10.0787   -1.7842 H   0  0  0  0  0  0  0  0  0  0  0  0
    1.0993   10.0961   -0.0235 H   0  0  0  0  0  0  0  0  0  0  0  0
   -1.2398   10.5802    0.7547 H   0  0  0  0  0  0  0  0  0  0  0  0
   -3.3360   11.7919    0.2811 H   0  0  0  0  0  0  0  0  0  0  0  0
   -3.8720   12.5113   -2.0185 H   0  0  0  0  0  0  0  0  0  0  0  0
   -3.0129   12.9602   -4.3304 H   0  0  0  0  0  0  0  0  0  0  0  0
   -1.9326   11.9565   -8.7119 H   0  0  0  0  0  0  0  0  0  0  0  0
   -0.4415   10.2971   -9.8178 H   0  0  0  0  0  0  0  0  0  0  0  0
    1.5950    9.0003   -4.5366 H   0  0  0  0  0  0  0  0  0  0  0  0
   -0.0788    8.3427   -4.3215 H   0  0  0  0  0  0  0  0  0  0  0  0
    1.1788    7.3134   -5.0383 H   0  0  0  0  0  0  0  0  0  0  0  0
    1.7301    8.9329  -13.2766 H   0  0  0  0  0  0  0  0  0  0  0  0
    2.9448    6.7861  -13.1564 H   0  0  0  0  0  0  0  0  0  0  0  0
    3.1435    5.5858  -11.0074 H   0  0  0  0  0  0  0  0  0  0  0  0
   -0.2129   10.7205   -3.4199 H   0  0  0  0  0  0  0  0  0  0  0  0
  1  2  1  0
  2  3  1  0
  3  4  4  0
  4  5  4  0
  5  6  4  0
  6  7  4  0
  7  8  1  0
  8  9  1  0
  9 10  4  0
 10 11  4  0
 11 12  4  0
 12 13  4  0
 13 14  4  0
 14 15  4  0
 15 16  2  0
 15 17  4  0
 12 18  4  0
 17 18  4  0
  9 19  4  0
 18 19  4  0
 17 20  1  0
 14 21  1  0
 21 22  4  0
 22 23  1  0
 22 24  4  0
 24 25  4  0
 25 26  4  0
 21 27  4  0
 26 27  4  0
 27 28  1  0
  3 29  4  0
  7 29  4  0
  1 30  1  0
  2 31  1  0
  2 32  1  0
  4 33  1  0
  5 34  1  0
  6 35  1  0
  8 36  1  0
 11 37  1  0
 13 38  1  0
 20 39  1  0
 20 40  1  0
 20 41  1  0
 24 42  1  0
 25 43  1  0
 26 44  1  0
 29 45  1  0
M  CHG  1  17   1
M  END
