
     RDKit          3D

 41 45  0  0  0  0  0  0  0  0999 V2000
   -4.7567  -42.3584   -7.3236 N   0  0  0  0  0  0  0  0  0  0  0  0
   -7.4379  -35.6009   -8.5752 N   0  0  0  0  0  0  0  0  0  0  0  0
   -8.5907  -38.5559   -6.9317 C   0  0  0  0  0  0  0  0  0  0  0  0
   -6.7020  -40.0942   -7.0858 C   0  0  0  0  0  0  0  0  0  0  0  0
   -6.0068  -40.7297   -5.8672 C   0  0  0  0  0  0  0  0  0  0  0  0
   -5.5632  -42.1697   -6.1149 C   0  0  0  0  0  0  0  0  0  0  0  0
   -3.3096  -42.5616   -7.1333 C   0  0  0  0  0  0  0  0  0  0  0  0
   -3.0358  -43.9302   -6.4908 C   0  0  0  0  0  0  0  0  0  0  0  0
   -8.1857  -36.4832   -7.8214 C   0  0  0  0  0  0  0  0  0  0  0  0
   -5.5668  -36.8553   -9.6332 C   0  0  0  0  0  0  0  0  0  0  0  0
   -3.3071  -37.3874  -10.3687 C   0  0  0  0  0  0  0  0  0  0  0  0
  -12.0510  -36.9868   -5.1342 C   0  0  0  0  0  0  0  0  0  0  0  0
  -14.3767  -36.5041   -5.3833 C   0  0  0  0  0  0  0  0  0  0  0  0
  -14.9268  -37.9237   -5.5386 C   0  0  0  0  0  0  0  0  0  0  0  0
  -15.7480  -40.0628   -2.4362 C   0  0  0  0  0  0  0  0  0  0  0  0
  -15.7773  -42.4462   -1.3861 C   0  0  0  0  0  0  0  0  0  0  0  0
  -15.0799  -44.2289   -2.8920 C   0  0  0  0  0  0  0  0  0  0  0  0
   -8.1518  -39.8863   -6.9000 N   0  0  0  0  0  0  0  0  0  0  0  0
  -12.2813  -38.6742   -2.6683 C   0  0  0  0  0  0  0  0  0  0  0  0
  -12.4800  -39.0737   -4.0296 O   0  0  0  0  0  0  0  0  0  0  0  0
  -11.7034  -38.3126   -4.8653 C   0  0  0  0  0  0  0  0  0  0  0  0
   -5.0697  -41.4398   -8.4257 C   0  0  0  0  0  0  0  0  0  0  0  0
   -6.5030  -40.9315   -8.3563 C   0  0  0  0  0  0  0  0  0  0  0  0
   -6.8906  -36.0777   -9.8354 C   0  0  0  0  0  0  0  0  0  0  0  0
   -5.1215  -37.4272  -11.9315 C   0  0  0  0  0  0  0  0  0  0  0  0
  -10.0523  -36.7587   -6.5200 C   0  0  0  0  0  0  0  0  0  0  0  0
  -11.2014  -36.2249   -5.9431 C   0  0  0  0  0  0  0  0  0  0  0  0
  -10.5371  -38.8546   -5.3955 C   0  0  0  0  0  0  0  0  0  0  0  0
  -15.6641  -38.4466   -4.2928 C   0  0  0  0  0  0  0  0  0  0  0  0
  -15.5523  -41.5469   -2.4149 C   0  0  0  0  0  0  0  0  0  0  0  0
  -15.5326  -43.7990   -1.6316 C   0  0  0  0  0  0  0  0  0  0  0  0
  -14.8665  -43.3097   -3.9249 C   0  0  0  0  0  0  0  0  0  0  0  0
   -9.7323  -38.0951   -6.2729 C   0  0  0  0  0  0  0  0  0  0  0  0
  -15.1019  -41.9703   -3.6667 C   0  0  0  0  0  0  0  0  0  0  0  0
  -14.9813  -40.7845   -4.5731 C   0  0  0  0  0  0  0  0  0  0  0  0
   -2.6105  -41.4521   -6.3356 C   0  0  0  0  0  0  0  0  0  0  0  0
   -7.8224  -37.7582   -7.6883 N   0  0  0  0  0  0  0  0  0  0  0  0
   -4.5873  -36.7829  -10.7329 N   0  0  0  0  0  0  0  0  0  0  0  0
   -9.2966  -35.9661   -7.2855 N   0  0  0  0  0  0  0  0  0  0  0  0
  -15.0567  -39.6159   -3.6690 N   0  0  0  0  0  0  0  0  0  0  0  0
  -13.2094  -36.5298   -4.5636 O   0  0  0  0  0  0  0  0  0  0  0  0
  4  5  1  0
  1  6  1  0
  5  6  1  0
  1  7  1  0
  7  8  1  0
  2  9  1  0
 13 14  1  0
  4 18  1  0
  3 18  1  0
 19 20  1  0
 12 21  4  0
 20 21  1  0
  1 22  1  0
  4 23  1  0
 22 23  1  0
 10 24  1  0
  2 24  1  0
 26 27  4  0
 12 27  4  0
 21 28  4  0
 14 29  1  0
 15 30  1  0
 16 30  4  0
 17 31  4  0
 16 31  4  0
 17 32  4  0
  3 33  4  0
 26 33  4  0
 28 33  4  0
 32 34  4  0
 30 34  4  0
 34 35  1  0
  7 36  1  0
  9 37  4  0
  3 37  4  0
 25 38  1  0
 11 38  1  0
 10 38  1  0
  9 39  4  0
 26 39  4  0
 35 40  1  0
 29 40  1  0
 15 40  1  0
 12 41  1  0
 13 41  1  0
M  END
