7W06_ITN_A_301
     RDKit          3D

  9  8  0  0  0  0  0  0  0  0999 V2000
  -20.4770   15.7880   29.1690 C   0  0  0  0  0  0  0  0  0  0  0  0
  -21.3590   16.7640   28.3980 C   0  0  0  0  0  0  0  0  0  0  0  0
  -20.5400   17.5020   27.3350 C   0  0  0  0  0  0  0  0  0  0  0  0
  -19.2890   18.2540   27.7320 C   0  0  0  0  0  0  0  0  0  0  0  0
  -19.0210   18.4120   28.9600 O   0  0  0  0  0  0  0  0  0  0  0  0
  -18.5300   18.7330   26.8320 O   0  0  0  0  0  0  0  0  0  0  0  0
  -20.9550   17.5020   26.0800 C   0  0  0  0  0  0  0  0  0  0  0  0
  -19.5370   15.1840   28.5980 O   0  0  0  0  0  0  0  0  0  0  0  0
  -20.7240   15.6050   30.3840 O   0  0  0  0  0  0  0  0  0  0  0  0
  1  2  1  0
  2  3  1  0
  3  4  1  0
  4  5  1  0
  4  6  2  0
  3  7  2  0
  1  8  2  0
  1  9  1  0
M  END
$$$$
