7V43_C4O_A_501
     RDKit          3D

  8  8  0  0  0  0  0  0  0  0999 V2000
  -39.6396   34.4468  -12.8488 C   0  0  0  0  0  0  0  0  0  0  0  0
  -40.1764   34.0390  -14.1976 C   0  0  0  0  0  0  0  0  0  0  0  0
  -41.2400   33.1319  -14.2870 C   0  0  0  0  0  0  0  0  0  0  0  0
  -41.7402   32.7509  -15.5157 C   0  0  0  0  0  0  0  0  0  0  0  0
  -41.1645   33.2873  -16.6511 C   0  0  0  0  0  0  0  0  0  0  0  0
  -41.7879   32.8148  -18.2428 Cl  0  0  0  0  0  0  0  0  0  0  0  0
  -40.1003   34.1955  -16.5756 C   0  0  0  0  0  0  0  0  0  0  0  0
  -39.5940   34.5810  -15.3275 C   0  0  0  0  0  0  0  0  0  0  0  0
  1  2  1  1
  2  3  2  0
  3  4  1  0
  4  5  2  0
  5  6  1  0
  5  7  1  0
  7  8  2  0
  2  8  1  0
M  END
$$$$
