7THI_PGA_B_301
     RDKit          3D

  9  8  0  0  0  0  0  0  0  0999 V2000
   41.9714   33.3290   65.9713 P   0  0  1  0  0  0  0  0  0  0  0  0
   42.2782   32.5774   67.4739 O   0  0  0  0  0  0  0  0  0  0  0  0
   42.6199   34.7162   65.9325 O   0  0  0  0  0  0  0  0  0  0  0  0
   42.6897   32.4159   64.7437 O   0  0  0  0  0  0  0  0  0  0  0  0
   40.3203   33.4995   65.7167 O   0  0  0  0  0  0  0  0  0  0  0  0
   41.7270   33.4088   68.4443 C   0  0  0  0  0  0  0  0  0  0  0  0
   41.8465   32.7286   69.7607 C   0  0  0  0  0  0  0  0  0  0  0  0
   42.0919   31.4847   69.7975 O   0  0  0  0  0  0  0  0  0  0  0  0
   41.7016   33.3930   70.9688 O   0  0  0  0  0  0  0  0  0  0  0  0
  1  2  1  0
  1  3  2  0
  1  4  1  6
  1  5  1  0
  2  6  1  0
  6  7  1  0
  7  8  2  0
  7  9  1  0
M  END
$$$$
