7CTM_BDP_A_501
     RDKit          3D

 23 23  0  0  0  0  0  0  0  0999 V2000
   -1.8981    0.0828   -0.0185 C   0  0  1  0  0  0  0  0  0  0  0  0
   -1.2314   -1.1322    0.7014 C   0  0  1  0  0  0  0  0  0  0  0  0
    0.1395   -1.4528    0.0818 C   0  0  2  0  0  0  0  0  0  0  0  0
    1.0391   -0.1930    0.0401 C   0  0  1  0  0  0  0  0  0  0  0  0
    0.1957    1.0918   -0.1827 C   0  0  1  0  0  0  0  0  0  0  0  0
    0.9745    2.1007   -0.9738 C   0  0  0  0  0  0  0  0  0  0  0  0
   -1.0621   -0.8514    2.0680 O   0  0  0  0  0  0  0  0  0  0  0  0
   -0.0540   -1.9493   -1.2193 O   0  0  0  0  0  0  0  0  0  0  0  0
    1.7491   -0.0913    1.2482 O   0  0  0  0  0  0  0  0  0  0  0  0
   -1.0024    0.7852   -0.8713 O   0  0  0  0  0  0  0  0  0  0  0  0
    1.0602    1.9961   -2.2272 O   0  0  0  0  0  0  0  0  0  0  0  0
   -2.9987   -0.3531   -0.7719 O   0  0  0  0  0  0  0  0  0  0  0  0
    1.6418    3.1300   -0.3170 O   0  0  0  0  0  0  0  0  0  0  0  0
   -2.2963    0.7934    0.7408 H   0  0  0  0  0  0  0  0  0  0  0  0
   -1.8735   -2.0394    0.5989 H   0  0  0  0  0  0  0  0  0  0  0  0
    0.6281   -2.2423    0.7017 H   0  0  0  0  0  0  0  0  0  0  0  0
    1.7685   -0.3296   -0.7944 H   0  0  0  0  0  0  0  0  0  0  0  0
   -0.0408    1.5633    0.8016 H   0  0  0  0  0  0  0  0  0  0  0  0
   -1.9588   -0.9237    2.4883 H   0  0  0  0  0  0  0  0  0  0  0  0
    0.7740   -2.4376   -1.4685 H   0  0  0  0  0  0  0  0  0  0  0  0
    2.4882    0.5534    1.0929 H   0  0  0  0  0  0  0  0  0  0  0  0
   -2.6393   -0.8824   -1.5313 H   0  0  0  0  0  0  0  0  0  0  0  0
    2.1858    3.8099   -0.8346 H   0  0  0  0  0  0  0  0  0  0  0  0
  1  2  1  0
  2  3  1  0
  3  4  1  0
  4  5  1  0
  5  6  1  0
  2  7  1  0
  3  8  1  0
  4  9  1  0
  1 10  1  0
  5 10  1  0
  6 11  2  0
  1 12  1  0
  6 13  1  0
  1 14  1  1
  2 15  1  1
  3 16  1  1
  4 17  1  6
  5 18  1  1
  7 19  1  0
  8 20  1  0
  9 21  1  0
 12 22  1  0
 13 23  1  0
M  END
