7F8T_FAD_A_512
     RDKit          3D

 53 58  0  0  0  0  0  0  0  0999 V2000
   22.8199   25.7936   95.1247 P   0  0  1  0  0  0  0  0  0  0  0  0
   22.2084   24.4900   95.6124 O   0  0  0  0  0  0  0  0  0  0  0  0
   21.5686   26.7358   94.4845 O   0  0  0  0  0  0  0  0  0  0  0  0
   23.4992   26.6725   96.3960 O   0  0  0  0  0  0  0  0  0  0  0  0
   24.5358   27.4505   95.8657 C   0  0  0  0  0  0  0  0  0  0  0  0
   25.1223   28.3030   96.9763 C   0  0  1  0  0  0  0  0  0  0  0  0
   24.9070   27.7637   98.2315 O   0  0  0  0  0  0  0  0  0  0  0  0
   26.6029   28.3960   96.7704 C   0  0  1  0  0  0  0  0  0  0  0  0
   26.8338   29.5647   96.0119 O   0  0  0  0  0  0  0  0  0  0  0  0
   27.1272   28.5316   98.1734 C   0  0  1  0  0  0  0  0  0  0  0  0
   27.3949   29.8935   98.3689 O   0  0  0  0  0  0  0  0  0  0  0  0
   25.9938   28.0839   99.0222 C   0  0  2  0  0  0  0  0  0  0  0  0
   26.3404   27.0009   99.9352 N   0  0  0  0  0  0  0  0  0  0  0  0
   26.4664   25.6914   99.5864 C   0  0  0  0  0  0  0  0  0  0  0  0
   26.7950   24.9786  100.6820 N   0  0  0  0  0  0  0  0  0  0  0  0
   26.8784   25.8259  101.7231 C   0  0  0  0  0  0  0  0  0  0  0  0
   27.1766   25.6357  103.0555 C   0  0  0  0  0  0  0  0  0  0  0  0
   27.4750   24.3072  103.5313 N   0  0  0  0  0  0  0  0  0  0  0  0
   27.1874   26.6915  103.8934 N   0  0  0  0  0  0  0  0  0  0  0  0
   26.9061   27.9478  103.4361 C   0  0  0  0  0  0  0  0  0  0  0  0
   26.6169   28.1077  102.1249 N   0  0  0  0  0  0  0  0  0  0  0  0
   26.5915   27.1083  101.2572 C   0  0  0  0  0  0  0  0  0  0  0  0
   24.5411   24.1557  101.2921 N   0  0  0  0  0  0  0  0  0  0  0  0
   24.5091   25.2807  102.0247 C   0  0  0  0  0  0  0  0  0  0  0  0
   24.1264   26.3276  101.4382 O   0  0  0  0  0  0  0  0  0  0  0  0
   24.8538   25.3538  103.3177 N   0  0  0  0  0  0  0  0  0  0  0  0
   25.2782   24.2788  104.0316 C   0  0  0  0  0  0  0  0  0  0  0  0
   25.6009   24.3408  105.2380 O   0  0  0  0  0  0  0  0  0  0  0  0
   25.3292   23.0846  103.3157 C   0  0  0  0  0  0  0  0  0  0  0  0
   25.7295   21.9556  103.8921 N   0  0  0  0  0  0  0  0  0  0  0  0
   25.7748   20.8042  103.1743 C   0  0  0  0  0  0  0  0  0  0  0  0
   26.2123   19.6580  103.8364 C   0  0  0  0  0  0  0  0  0  0  0  0
   26.2871   18.4616  103.1553 C   0  0  0  0  0  0  0  0  0  0  0  0
   26.7533   17.2694  103.8832 C   0  0  0  0  0  0  0  0  0  0  0  0
   25.9233   18.4324  101.8227 C   0  0  0  0  0  0  0  0  0  0  0  0
   26.0150   17.1248  101.1053 C   0  0  0  0  0  0  0  0  0  0  0  0
   25.4897   19.5883  101.1819 C   0  0  0  0  0  0  0  0  0  0  0  0
   25.4077   20.7927  101.8472 C   0  0  0  0  0  0  0  0  0  0  0  0
   24.9883   21.8967  101.1866 N   0  0  0  0  0  0  0  0  0  0  0  0
   24.9488   23.0332  101.9104 C   0  0  0  0  0  0  0  0  0  0  0  0
   24.5846   21.8915   99.8199 C   0  0  0  0  0  0  0  0  0  0  0  0
   25.4387   22.7594   98.9113 C   0  0  2  0  0  0  0  0  0  0  0  0
   25.0378   24.0636   99.0407 O   0  0  0  0  0  0  0  0  0  0  0  0
   25.2442   22.3443   97.4545 C   0  0  2  0  0  0  0  0  0  0  0  0
   25.3390   20.9238   97.4986 O   0  0  0  0  0  0  0  0  0  0  0  0
   26.3965   22.7870   96.6149 C   0  0  2  0  0  0  0  0  0  0  0  0
   27.4308   23.3624   97.3238 O   0  0  0  0  0  0  0  0  0  0  0  0
   25.9274   23.6031   95.4322 C   0  0  0  0  0  0  0  0  0  0  0  0
   24.7863   23.0167   94.9166 O   0  0  0  0  0  0  0  0  0  0  0  0
   24.1458   23.8617   93.6157 P   0  0  1  0  0  0  0  0  0  0  0  0
   24.9872   23.6924   92.3677 O   0  0  0  0  0  0  0  0  0  0  0  0
   22.6032   23.2752   93.2865 O   0  0  0  0  0  0  0  0  0  0  0  0
   24.0311   25.5118   93.9758 O   0  0  0  0  0  0  0  0  0  0  0  0
  1  2  2  0
  1  3  1  6
  1  4  1  0
  4  5  1  0
  6  5  1  6
  6  7  1  0
  6  8  1  0
  8  9  1  6
  8 10  1  0
 10 11  1  1
  7 12  1  0
 10 12  1  0
 12 13  1  6
 13 14  1  0
 14 15  2  0
 15 16  1  0
 16 17  2  0
 17 18  1  0
 17 19  1  0
 19 20  2  0
 20 21  1  0
 13 22  1  0
 16 22  1  0
 21 22  2  0
 23 24  1  0
 24 25  2  0
 24 26  1  0
 26 27  1  0
 27 28  2  0
 27 29  1  0
 29 30  2  0
 30 31  1  0
 31 32  1  0
 32 33  2  0
 33 34  1  0
 33 35  1  0
 35 36  1  0
 35 37  2  0
 31 38  2  0
 37 38  1  0
 38 39  1  0
 23 40  2  0
 29 40  1  0
 39 40  1  0
 39 41  1  0
 41 42  1  0
 42 43  1  6
 42 44  1  0
 44 45  1  1
 44 46  1  0
 46 47  1  1
 46 48  1  0
 48 49  1  0
 49 50  1  0
 50 51  2  0
 50 52  1  6
  1 53  1  0
 50 53  1  0
M  END
$$$$
