5SB2_1K2_A_1006
     RDKit          3D

 50 54  0  0  0  0  0  0  0  0999 V2000
   -9.8720    1.1885   -1.1735 C   0  0  0  0  0  0  0  0  0  0  0  0
   -5.9671   -1.7924    1.5017 C   0  0  0  0  0  0  0  0  0  0  0  0
   -5.0663   -2.2087    2.2812 O   0  0  0  0  0  0  0  0  0  0  0  0
   -5.6130   -1.4196    0.1117 C   0  0  0  0  0  0  0  0  0  0  0  0
   -6.2305   -0.4093   -2.0151 C   0  0  0  0  0  0  0  0  0  0  0  0
   -4.9666   -0.7068   -2.5302 C   0  0  0  0  0  0  0  0  0  0  0  0
   -4.0159   -1.3630   -1.7356 C   0  0  0  0  0  0  0  0  0  0  0  0
   -2.6602   -1.6908   -2.3038 C   0  0  0  0  0  0  0  0  0  0  0  0
   -1.5258   -0.1040   -0.7171 C   0  0  0  0  0  0  0  0  0  0  0  0
   -2.4589    0.1838    0.2971 C   0  0  0  0  0  0  0  0  0  0  0  0
   -2.3464    1.4022    0.9553 C   0  0  0  0  0  0  0  0  0  0  0  0
   -1.3676    2.2922    0.6286 C   0  0  0  0  0  0  0  0  0  0  0  0
   -2.4919    3.2029    2.2092 C   0  0  0  0  0  0  0  0  0  0  0  0
   -3.0860    1.9644    1.9724 C   0  0  0  0  0  0  0  0  0  0  0  0
   -0.5232    0.8594   -1.0272 C   0  0  0  0  0  0  0  0  0  0  0  0
   -7.3205   -1.7008    1.9710 N   0  0  0  0  0  0  0  0  0  0  0  0
   -8.1931   -0.6077    1.5549 C   0  0  1  0  0  0  0  0  0  0  0  0
   -8.4400   -0.5806    0.0510 C   0  0  1  0  0  0  0  0  0  0  0  0
   -9.5318   -1.0782    0.9944 C   0  0  0  0  0  0  0  0  0  0  0  0
   -8.6523    0.7802   -0.5884 C   0  0  0  0  0  0  0  0  0  0  0  0
   -7.5715    1.6788   -0.5888 C   0  0  0  0  0  0  0  0  0  0  0  0
   -7.7002    2.9497   -1.1569 C   0  0  0  0  0  0  0  0  0  0  0  0
   -8.9103    3.3405   -1.7322 C   0  0  0  0  0  0  0  0  0  0  0  0
   -9.9943    2.4610   -1.7404 C   0  0  0  0  0  0  0  0  0  0  0  0
   -6.5538   -0.7648   -0.7024 C   0  0  0  0  0  0  0  0  0  0  0  0
   -1.6279   -1.3354   -1.3836 O   0  0  0  0  0  0  0  0  0  0  0  0
   -1.4383    3.3992    1.3820 N   0  0  0  0  0  4  0  0  0  0  0  0
   -0.4606    2.0434   -0.3469 N   0  0  0  0  0  0  0  0  0  0  0  0
   -4.3483   -1.7300   -0.4213 C   0  0  0  0  0  0  0  0  0  0  0  0
   -7.4123    0.4142   -3.0166 Cl  0  0  0  0  0  0  0  0  0  0  0  0
  -10.7333    0.5364   -1.1993 H   0  0  0  0  0  0  0  0  0  0  0  0
   -4.7246   -0.4284   -3.5488 H   0  0  0  0  0  0  0  0  0  0  0  0
   -2.5195   -1.1016   -3.2341 H   0  0  0  0  0  0  0  0  0  0  0  0
   -2.5693   -2.7631   -2.5817 H   0  0  0  0  0  0  0  0  0  0  0  0
   -3.2364   -0.5224    0.5598 H   0  0  0  0  0  0  0  0  0  0  0  0
   -2.8178    3.9208    2.9503 H   0  0  0  0  0  0  0  0  0  0  0  0
   -3.9422    1.5385    2.4785 H   0  0  0  0  0  0  0  0  0  0  0  0
    0.2007    0.6769   -1.8068 H   0  0  0  0  0  0  0  0  0  0  0  0
   -7.6514   -2.3329    2.7337 H   0  0  0  0  0  0  0  0  0  0  0  0
   -8.1594    0.3428    2.1263 H   0  0  0  0  0  0  0  0  0  0  0  0
   -7.9425   -1.3846   -0.5352 H   0  0  0  0  0  0  0  0  0  0  0  0
   -9.6748   -2.1798    0.9771 H   0  0  0  0  0  0  0  0  0  0  0  0
  -10.3791   -0.3880    1.1832 H   0  0  0  0  0  0  0  0  0  0  0  0
   -6.6239    1.3961   -0.1467 H   0  0  0  0  0  0  0  0  0  0  0  0
   -6.8603    3.6322   -1.1503 H   0  0  0  0  0  0  0  0  0  0  0  0
   -9.0083    4.3248   -2.1715 H   0  0  0  0  0  0  0  0  0  0  0  0
  -10.9321    2.7655   -2.1870 H   0  0  0  0  0  0  0  0  0  0  0  0
   -7.5358   -0.5196   -0.3165 H   0  0  0  0  0  0  0  0  0  0  0  0
   -0.8148    4.2357    1.3408 H   0  0  0  0  0  0  0  0  0  0  0  0
   -3.6242   -2.2714    0.1736 H   0  0  0  0  0  0  0  0  0  0  0  0
  2  3  2  0
  2  4  1  0
  5  6  4  0
  6  7  4  0
  7  8  1  0
  9 10  4  0
 10 11  4  0
 11 12  4  0
 11 14  4  0
 13 14  4  0
  9 15  4  0
  2 16  1  0
 17 16  1  0
 17 18  1  0
 17 19  1  0
 18 19  1  0
 18 20  1  0
  1 20  4  0
 20 21  4  0
 21 22  4  0
 22 23  4  0
 23 24  4  0
  1 24  4  0
  4 25  4  0
  5 25  4  0
  8 26  1  0
  9 26  1  0
 12 27  4  0
 13 27  4  0
 12 28  4  0
 15 28  4  0
  4 29  4  0
  7 29  4  0
  5 30  1  0
  1 31  1  0
  6 32  1  0
  8 33  1  0
  8 34  1  0
 10 35  1  0
 13 36  1  0
 14 37  1  0
 15 38  1  0
 16 39  1  0
 17 40  1  1
 18 41  1  6
 19 42  1  0
 19 43  1  0
 21 44  1  0
 22 45  1  0
 23 46  1  0
 24 47  1  0
 25 48  1  0
 27 49  1  0
 29 50  1  0
M  CHG  1  27   1
M  END
