7KFO_IAC_A_201
     RDKit          3D

 13 14  0  0  0  0  0  0  0  0999 V2000
   -1.1459   49.5597   34.2906 C   0  0  0  0  0  0  0  0  0  0  0  0
    0.2063   49.3446   34.3521 C   0  0  0  0  0  0  0  0  0  0  0  0
    1.0204   50.1308   33.5687 C   0  0  0  0  0  0  0  0  0  0  0  0
    0.5423   51.1180   32.7303 C   0  0  0  0  0  0  0  0  0  0  0  0
   -0.8274   51.3158   32.6861 C   0  0  0  0  0  0  0  0  0  0  0  0
   -1.6691   50.5350   33.4676 C   0  0  0  0  0  0  0  0  0  0  0  0
    0.4699   48.3236   35.2441 C   0  0  0  0  0  0  0  0  0  0  0  0
   -0.7867   47.9301   35.7194 C   0  0  0  0  0  0  0  0  0  0  0  0
    1.7801   47.7713   35.6107 C   0  0  0  0  0  0  0  0  0  0  0  0
    2.0975   46.4768   34.9741 C   0  0  0  0  0  0  0  0  0  0  0  0
   -1.7313   48.6888   35.1303 N   0  0  0  0  0  0  0  0  0  0  0  0
    3.3681   45.9267   35.1778 O   0  0  0  0  0  0  0  0  0  0  0  0
    1.2989   45.8253   34.2531 O   0  0  0  0  0  0  0  0  0  0  0  0
  1  2  1  0
  2  3  2  0
  3  4  1  0
  4  5  2  0
  1  6  2  0
  5  6  1  0
  2  7  1  0
  7  8  2  0
  7  9  1  0
  9 10  1  1
  1 11  1  0
  8 11  1  0
 10 12  1  0
 10 13  2  0
M  END
$$$$
