8GFD_ZHR_A_601
     RDKit          3D

 26 28  0  0  0  0  0  0  0  0999 V2000
  -18.6432  -95.0885  -16.7908 C   0  0  0  0  0  0  0  0  0  0  0  0
  -20.0365  -94.8363  -16.2931 C   0  0  0  0  0  0  0  0  0  0  0  0
  -20.1981  -94.4320  -15.1127 O   0  0  0  0  0  0  0  0  0  0  0  0
  -21.1018  -95.0732  -17.1994 N   0  0  0  0  0  0  0  0  0  0  0  0
  -22.4108  -94.4765  -17.0820 C   0  0  2  0  0  0  0  0  0  0  0  0
  -23.5273  -95.3772  -17.5038 C   0  0  1  0  0  0  0  0  0  0  0  0
  -24.7151  -94.6739  -17.1912 O   0  0  0  0  0  0  0  0  0  0  0  0
  -23.5893  -95.6143  -18.9938 C   0  0  2  0  0  0  0  0  0  0  0  0
  -22.6098  -96.4944  -19.4506 O   0  0  0  0  0  0  0  0  0  0  0  0
  -23.5960  -94.2964  -19.7059 C   0  0  1  0  0  0  0  0  0  0  0  0
  -24.8528  -94.1832  -20.5391 C   0  0  0  0  0  0  0  0  0  0  0  0
  -25.9685  -93.8967  -19.7578 O   0  0  0  0  0  0  0  0  0  0  0  0
  -23.6036  -93.2619  -18.7806 O   0  0  0  0  0  0  0  0  0  0  0  0
  -22.5022  -93.2206  -17.9774 C   0  0  1  0  0  0  0  0  0  0  0  0
  -22.5809  -92.0905  -17.1736 O   0  0  0  0  0  0  0  0  0  0  0  0
  -21.7706  -91.0544  -17.5120 C   0  0  0  0  0  0  0  0  0  0  0  0
  -21.0885  -90.2989  -16.4287 C   0  0  0  0  0  0  0  0  0  0  0  0
  -20.3833  -89.0990  -16.8722 C   0  0  0  0  0  0  0  0  0  0  0  0
  -20.0053  -88.0360  -16.0994 C   0  0  0  0  0  0  0  0  0  0  0  0
  -19.3266  -86.9487  -16.6079 C   0  0  0  0  0  0  0  0  0  0  0  0
  -18.9949  -86.8793  -17.9256 C   0  0  0  0  0  0  0  0  0  0  0  0
  -18.3616  -85.9622  -18.6268 O   0  0  0  0  0  0  0  0  0  0  0  0
  -18.2770  -86.3440  -19.8875 C   0  0  0  0  0  0  0  0  0  0  0  0
  -18.8939  -87.5827  -20.0046 C   0  0  0  0  0  0  0  0  0  0  0  0
  -19.3613  -87.9382  -18.7437 C   0  0  0  0  0  0  0  0  0  0  0  0
  -20.0405  -89.0241  -18.2285 C   0  0  0  0  0  0  0  0  0  0  0  0
  1  2  1  0
  2  3  2  0
  2  4  1  0
  5  4  1  6
  5  6  1  0
  6  7  1  6
  6  8  1  0
  8  9  1  6
  8 10  1  0
 10 11  1  6
 11 12  1  0
 10 13  1  0
  5 14  1  0
 13 14  1  0
 14 15  1  1
 15 16  1  0
 16 17  1  0
 17 18  1  0
 18 19  2  0
 19 20  1  0
 20 21  2  0
 21 22  1  0
 22 23  1  0
 23 24  2  0
 21 25  1  0
 24 25  1  0
 18 26  1  0
 25 26  2  0
M  END
$$$$
