7LT0_ONJ_A_301
     RDKit          3D

 27 30  0  0  0  0  0  0  0  0999 V2000
  -28.4802   -8.4983  -23.6686 C   0  0  0  0  0  0  0  0  0  0  0  0
  -27.7081   -7.4635  -24.1561 C   0  0  0  0  0  0  0  0  0  0  0  0
  -26.3617   -7.5740  -24.2928 C   0  0  0  0  0  0  0  0  0  0  0  0
  -25.7560   -8.7676  -23.9288 C   0  0  0  0  0  0  0  0  0  0  0  0
  -26.5231   -9.8235  -23.4343 C   0  0  0  0  0  0  0  0  0  0  0  0
  -27.8885   -9.6850  -23.3051 C   0  0  0  0  0  0  0  0  0  0  0  0
  -29.9153   -8.2698  -23.5645 C   0  0  0  0  0  0  0  0  0  0  0  0
  -30.8037   -9.3286  -23.8745 N   0  0  0  0  0  0  0  0  0  0  0  0
  -30.2867   -7.1326  -23.2010 O   0  0  0  0  0  0  0  0  0  0  0  0
  -32.1809   -9.5469  -23.4010 C   0  0  0  0  0  0  0  0  0  0  0  0
  -32.8585   -9.8299  -24.7196 C   0  0  0  0  0  0  0  0  0  0  0  0
  -31.8753  -10.3982  -25.5407 C   0  0  0  0  0  0  0  0  0  0  0  0
  -30.5861  -10.4773  -24.7631 C   0  0  0  0  0  0  0  0  0  0  0  0
  -34.1389   -9.6416  -25.1980 C   0  0  0  0  0  0  0  0  0  0  0  0
  -34.4189  -10.0211  -26.4832 C   0  0  0  0  0  0  0  0  0  0  0  0
  -33.4945  -10.5879  -27.3444 C   0  0  0  0  0  0  0  0  0  0  0  0
  -32.2168  -10.7687  -26.8461 C   0  0  0  0  0  0  0  0  0  0  0  0
  -25.6474  -11.3205  -23.0118 S   0  0  0  0  0  0  0  0  0  0  0  0
  -26.3821  -12.7262  -23.8297 C   0  0  0  0  0  0  0  0  0  0  0  0
  -24.3778   -8.8629  -24.0750 O   0  0  0  0  0  0  0  0  0  0  0  0
  -27.7112  -13.0949  -23.6323 C   0  0  0  0  0  0  0  0  0  0  0  0
  -28.1959  -14.2060  -24.3036 C   0  0  0  0  0  0  0  0  0  0  0  0
  -27.4071  -14.9569  -25.1596 C   0  0  0  0  0  0  0  0  0  0  0  0
  -26.0726  -14.5829  -25.3552 C   0  0  0  0  0  0  0  0  0  0  0  0
  -25.6023  -13.4820  -24.6861 C   0  0  0  0  0  0  0  0  0  0  0  0
  -27.9468  -16.1489  -25.8737 C   0  0  0  0  0  0  0  0  0  0  0  0
  -29.5994  -14.6466  -24.1325 C   0  0  0  0  0  0  0  0  0  0  0  0
  1  2  2  0
  2  3  1  0
  3  4  2  0
  4  5  1  0
  1  6  1  0
  5  6  2  0
  1  7  1  0
  7  8  1  0
  7  9  2  0
 10  8  1  1
 10 11  1  0
 11 12  2  0
 13  8  1  1
 12 13  1  0
 11 14  1  0
 14 15  2  0
 15 16  1  0
 16 17  2  0
 12 17  1  0
  5 18  1  0
 18 19  1  0
  4 20  1  0
 19 21  2  0
 21 22  1  0
 22 23  2  0
 23 24  1  0
 24 25  2  0
 19 25  1  0
 26 23  1  1
 27 22  1  6
M  END
$$$$
