6YQW_82I_A_201
     RDKit          3D

 11 11  0  0  0  0  0  0  0  0999 V2000
    2.9093   12.9872    9.6909 C   0  0  0  0  0  0  0  0  0  0  0  0
    2.5250   14.2220   10.3687 N   0  0  0  0  0  0  0  0  0  0  0  0
    1.2788   14.4644   10.7609 C   0  0  0  0  0  0  0  0  0  0  0  0
    0.2571   13.4197   10.7983 C   0  0  0  0  0  0  0  0  0  0  0  0
   -0.9743   13.5917   11.2116 N   0  0  0  0  0  0  0  0  0  0  0  0
   -1.3592   14.8584   11.5726 N   0  0  0  0  0  0  0  0  0  0  0  0
   -2.7569   14.9566   11.9452 C   0  0  0  0  0  0  0  0  0  0  0  0
   -0.5471   16.0040   11.5801 C   0  0  0  0  0  0  0  0  0  0  0  0
   -0.9764   17.1200   11.9351 O   0  0  0  0  0  0  0  0  0  0  0  0
    0.8168   15.7328   11.1800 C   0  0  0  0  0  0  0  0  0  0  0  0
    1.8483   17.1089   11.2080 Cl  0  0  0  0  0  0  0  0  0  0  0  0
  1  2  1  0
  2  3  1  0
  3  4  1  0
  4  5  2  0
  5  6  1  0
  6  7  1  0
  6  8  1  0
  8  9  2  0
  8 10  1  0
  3 10  2  0
 10 11  1  0
M  END
