8HFN_XGC_A_502
     RDKit          3D

 24 25  0  0  0  0  0  0  0  0999 V2000
   56.5390   -9.1508   -9.6585 C   0  0  0  0  0  0  0  0  0  0  0  0
   58.8419   -2.9778   -6.8004 C   0  0  0  0  0  0  0  0  0  0  0  0
   59.3797   -1.7257   -7.0111 C   0  0  0  0  0  0  0  0  0  0  0  0
   60.6926   -1.5931   -7.4505 C   0  0  0  0  0  0  0  0  0  0  0  0
   60.8838   -3.9447   -7.4538 C   0  0  0  0  0  0  0  0  0  0  0  0
   57.2944   -7.1065   -6.9677 C   0  0  0  0  0  0  0  0  0  0  0  0
   59.0087   -5.4563   -6.7961 C   0  0  0  0  0  0  0  0  0  0  0  0
   59.7967   -6.3643   -6.0982 C   0  0  0  0  0  0  0  0  0  0  0  0
   58.1065   -7.9883   -6.2685 C   0  0  0  0  0  0  0  0  0  0  0  0
   59.3666   -7.6395   -5.8213 C   0  0  0  0  0  0  0  0  0  0  0  0
   56.7254  -10.3960  -10.4429 C   0  0  2  0  0  0  0  0  0  0  0  0
   59.5936   -4.1354   -7.0205 C   0  0  0  0  0  0  0  0  0  0  0  0
   62.4755    0.0005   -8.0751 C   0  0  0  0  0  0  0  0  0  0  0  0
   57.6813  -11.3501   -9.7312 C   0  0  0  0  0  0  0  0  0  0  0  0
   57.7636   -5.8203   -7.2307 C   0  0  0  0  0  0  0  0  0  0  0  0
   55.8305   -9.0998   -8.4261 N   0  0  0  0  0  0  0  0  0  0  0  0
   61.4191   -2.7166   -7.6630 N   0  0  0  0  0  0  0  0  0  0  0  0
   57.0414  -10.1912  -11.8200 N   0  0  0  0  0  0  0  0  0  0  0  0
   57.0197   -8.0394  -10.0662 O   0  0  0  0  0  0  0  0  0  0  0  0
   61.1680   -0.3255   -7.6411 O   0  0  0  0  0  0  0  0  0  0  0  0
   54.8802   -7.9480   -6.2788 O   0  0  0  0  0  0  0  0  0  0  0  0
   55.0483   -6.5511   -8.2325 O   0  0  0  0  0  0  0  0  0  0  0  0
   57.5891  -13.0132  -10.3923 S   0  0  0  0  0  0  0  0  0  0  0  0
   55.7373   -7.6555   -7.4775 S   0  0  1  0  0  0  0  0  0  0  0  0
  2  3  2  0
  3  4  1  0
  7  8  1  0
  6  9  2  0
  8 10  2  0
  9 10  1  0
  1 11  1  0
  2 12  1  0
  5 12  2  0
  7 12  1  0
 11 14  1  0
  7 15  2  0
  6 15  1  0
  1 16  1  0
  4 17  2  0
  5 17  1  0
 11 18  1  6
  1 19  2  0
 13 20  1  0
  4 20  1  0
 14 23  1  0
 21 24  2  0
  6 24  1  0
 22 24  2  0
 24 16  1  6
M  END
$$$$
