
     RDKit          3D

 10 10  0  0  0  0  0  0  0  0999 V2000
  -12.8015  -49.4682   -7.0046 O   0  0  0  0  0  0  0  0  0  0  0  0
  -12.4868  -50.6301   -7.2101 C   0  0  0  0  0  0  0  0  0  0  0  0
  -12.2911  -51.0485   -8.4745 O   0  0  0  0  0  0  0  0  0  0  0  0
  -12.2055  -51.6523   -6.1414 C   0  0  0  0  0  0  0  0  0  0  0  0
  -10.9869  -52.5374   -6.3850 C   0  0  0  0  0  0  0  0  0  0  0  0
  -11.1939  -53.9405   -5.9338 C   0  0  0  0  0  0  0  0  0  0  0  0
  -11.8200  -54.4798   -4.8309 C   0  0  0  0  0  0  0  0  0  0  0  0
  -11.7502  -55.8484   -4.8505 N   0  0  0  0  0  0  0  0  0  0  0  0
  -11.0892  -56.1480   -5.9444 C   0  0  0  0  0  0  0  0  0  0  0  0
  -10.7268  -55.0266   -6.6323 N   0  0  0  0  0  0  0  0  0  0  0  0
  1  2  2  0
  2  3  1  0
  2  4  1  0
  4  5  1  0
  5  6  1  0
  6  7  4  0
  7  8  4  0
  8  9  4  0
  9 10  4  0
  6 10  4  0
M  END
