7QK0_EBL_A_201
     RDKit          3D

 67 72  0  0  0  0  0  0  0  0999 V2000
  -37.4896   28.1402   10.0304 C   0  0  1  0  0  0  0  0  0  0  0  0
  -38.9724   30.2316   10.0188 C   0  0  2  0  0  0  0  0  0  0  0  0
  -38.9855   30.9115    8.6321 C   0  0  1  0  0  0  0  0  0  0  0  0
  -40.3100   30.8857    7.8830 C   0  0  2  0  0  0  0  0  0  0  0  0
  -39.8366   32.1704    8.5450 C   0  0  2  0  0  0  0  0  0  0  0  0
  -37.5458   30.3316   12.1255 C   0  0  0  0  0  0  0  0  0  0  0  0
  -41.4674   35.9466   18.6570 C   0  0  2  0  0  0  0  0  0  0  0  0
  -41.6867   34.8458   19.7065 C   0  0  1  0  0  0  0  0  0  0  0  0
  -42.9620   34.0239   19.4119 C   0  0  2  0  0  0  0  0  0  0  0  0
  -43.3672   34.0026   17.9164 C   0  0  1  0  0  0  0  0  0  0  0  0
  -37.1759   29.0016   12.3941 C   0  0  0  0  0  0  0  0  0  0  0  0
  -36.8206   28.6375   13.6972 C   0  0  0  0  0  0  0  0  0  0  0  0
  -36.4988   27.4349   13.9124 O   0  0  0  0  0  0  0  0  0  0  0  0
  -37.1323   27.9995   11.4063 O   0  0  0  0  0  0  0  0  0  0  0  0
  -37.8305   30.7478   10.7840 N   0  0  0  0  0  0  0  0  0  0  0  0
  -38.9190   28.6844    9.8853 C   0  0  2  0  0  0  0  0  0  0  0  0
  -39.7170   28.1165   10.8679 F   0  0  0  0  0  0  0  0  0  0  0  0
  -39.4275   28.2793    8.6592 F   0  0  0  0  0  0  0  0  0  0  0  0
  -36.8144   29.5563   14.7203 N   0  0  0  0  0  0  0  0  0  0  0  0
  -36.4030   29.1307   16.0743 C   0  0  1  0  0  0  0  0  0  0  0  0
  -37.1829   30.8662   14.4807 C   0  0  0  0  0  0  0  0  0  0  0  0
  -37.2052   31.8334   15.5144 C   0  0  0  0  0  0  0  0  0  0  0  0
  -37.5590   33.1569   15.2561 C   0  0  0  0  0  0  0  0  0  0  0  0
  -37.9138   33.5599   13.9632 C   0  0  0  0  0  0  0  0  0  0  0  0
  -37.9019   32.6191   12.9290 C   0  0  0  0  0  0  0  0  0  0  0  0
  -37.5432   31.2755   13.1693 C   0  0  0  0  0  0  0  0  0  0  0  0
  -38.2161   34.9348   13.6651 N   0  0  0  0  0  0  0  0  0  0  0  0
  -39.0026   35.7762   14.5218 C   0  0  0  0  0  0  0  0  0  0  0  0
  -38.9879   37.1699   14.3690 C   0  0  0  0  0  0  0  0  0  0  0  0
  -37.9721   37.9618   13.1746 Cl  0  0  0  0  0  0  0  0  0  0  0  0
  -39.7731   37.9399   15.2275 C   0  0  0  0  0  0  0  0  0  0  0  0
  -40.5401   37.3380   16.1702 N   0  0  0  0  0  0  0  0  0  0  0  0
  -40.5631   35.9839   16.3004 C   0  0  0  0  0  0  0  0  0  0  0  0
  -39.7948   35.2193   15.4765 N   0  0  0  0  0  0  0  0  0  0  0  0
  -41.3868   35.3637   17.3070 N   0  0  0  0  0  0  0  0  0  0  0  0
  -42.1496   34.1460   16.9840 C   0  0  2  0  0  0  0  0  0  0  0  0
  -44.1673   32.7377   17.5817 C   0  0  2  0  0  0  0  0  0  0  0  0
  -40.5742   33.9846   19.7262 O   0  0  0  0  0  0  0  0  0  0  0  0
  -36.7509   28.7829    9.5029 H   0  0  0  0  0  0  0  0  0  0  0  0
  -37.4363   27.1335    9.5638 H   0  0  0  0  0  0  0  0  0  0  0  0
  -39.9043   30.4958   10.5720 H   0  0  0  0  0  0  0  0  0  0  0  0
  -38.0681   30.9203    8.0021 H   0  0  0  0  0  0  0  0  0  0  0  0
  -41.1610   30.3931    8.4045 H   0  0  0  0  0  0  0  0  0  0  0  0
  -40.2126   30.8861    6.7775 H   0  0  0  0  0  0  0  0  0  0  0  0
  -39.4573   32.9337    7.8299 H   0  0  0  0  0  0  0  0  0  0  0  0
  -40.4120   32.4464    9.4565 H   0  0  0  0  0  0  0  0  0  0  0  0
  -40.5250   36.4849   18.9049 H   0  0  0  0  0  0  0  0  0  0  0  0
  -42.3027   36.6798   18.6951 H   0  0  0  0  0  0  0  0  0  0  0  0
  -41.8012   35.3219   20.7090 H   0  0  0  0  0  0  0  0  0  0  0  0
  -43.8098   34.4509   19.9936 H   0  0  0  0  0  0  0  0  0  0  0  0
  -42.8139   32.9884   19.7903 H   0  0  0  0  0  0  0  0  0  0  0  0
  -44.0336   34.8756   17.7298 H   0  0  0  0  0  0  0  0  0  0  0  0
  -37.2261   31.4951   10.3723 H   0  0  0  0  0  0  0  0  0  0  0  0
  -36.0781   28.0714   16.1190 H   0  0  0  0  0  0  0  0  0  0  0  0
  -35.5399   29.7399   16.4191 H   0  0  0  0  0  0  0  0  0  0  0  0
  -37.2520   29.2452   16.7814 H   0  0  0  0  0  0  0  0  0  0  0  0
  -36.9442   31.5866   16.5333 H   0  0  0  0  0  0  0  0  0  0  0  0
  -37.5283   33.8710   16.0681 H   0  0  0  0  0  0  0  0  0  0  0  0
  -38.1845   32.9495   11.9377 H   0  0  0  0  0  0  0  0  0  0  0  0
  -37.8546   35.3386   12.7705 H   0  0  0  0  0  0  0  0  0  0  0  0
  -39.7699   39.0190   15.1511 H   0  0  0  0  0  0  0  0  0  0  0  0
  -42.5175   34.2027   15.9338 H   0  0  0  0  0  0  0  0  0  0  0  0
  -41.4828   33.2604   17.0772 H   0  0  0  0  0  0  0  0  0  0  0  0
  -43.6212   32.1300   16.8278 H   0  0  0  0  0  0  0  0  0  0  0  0
  -45.1661   33.0052   17.1769 H   0  0  0  0  0  0  0  0  0  0  0  0
  -44.3066   32.1193   18.4927 H   0  0  0  0  0  0  0  0  0  0  0  0
  -40.6617   33.3823   18.9418 H   0  0  0  0  0  0  0  0  0  0  0  0
  2  3  1  0
  3  4  1  0
  4  5  1  0
  3  5  1  0
  7  8  1  0
  8  9  1  0
  9 10  1  0
  6 11  2  0
 11 12  1  0
 12 13  2  0
 11 14  1  0
  1 14  1  0
  6 15  1  0
  2 15  1  0
  2 16  1  0
  1 16  1  0
 16 17  1  1
 16 18  1  0
 12 19  1  0
 19 20  1  0
 19 21  1  0
 21 22  2  0
 22 23  1  0
 23 24  2  0
 24 25  1  0
 25 26  2  0
 21 26  1  0
  6 26  1  0
 24 27  1  0
 27 28  1  0
 28 29  2  0
 29 30  1  0
 29 31  1  0
 31 32  2  0
 32 33  1  0
 33 34  2  0
 28 34  1  0
 33 35  1  0
  7 35  1  0
 10 36  1  0
 35 36  1  0
 10 37  1  0
  8 38  1  0
  1 39  1  6
  1 40  1  0
  2 41  1  1
  3 42  1  6
  4 43  1  1
  4 44  1  0
  5 45  1  6
  5 46  1  0
  7 47  1  1
  7 48  1  0
  8 49  1  1
  9 50  1  1
  9 51  1  0
 10 52  1  1
 15 53  1  0
 20 54  1  6
 20 55  1  0
 20 56  1  0
 22 57  1  0
 23 58  1  0
 25 59  1  0
 27 60  1  0
 31 61  1  0
 36 62  1  6
 36 63  1  0
 37 64  1  6
 37 65  1  0
 37 66  1  0
 38 67  1  0
M  END
