7UJ4_OQ4_A_601
     RDKit          3D

 44 48  0  0  0  0  0  0  0  0999 V2000
  -23.6770    5.0750   24.5340 C   0  0  0  0  0  0  0  0  0  0  0  0
  -22.5010    4.1580   24.2810 C   0  0  0  0  0  0  0  0  0  0  0  0
  -21.8350    4.3840   22.9480 C   0  0  0  0  0  0  0  0  0  0  0  0
  -22.9090    2.7560   24.4360 N   0  0  0  0  0  0  0  0  0  0  0  0
  -23.6390    2.1900   23.2920 C   0  0  0  0  0  0  0  0  0  0  0  0
  -22.9260    1.0450   22.6360 C   0  0  0  0  0  0  0  0  0  0  0  0
  -22.7170    2.0470   25.5630 C   0  0  0  0  0  0  0  0  0  0  0  0
  -23.2430    0.9490   25.6800 O   0  0  0  0  0  0  0  0  0  0  0  0
  -21.8490    2.5340   26.7120 C   0  0  0  0  0  0  0  0  0  0  0  0
  -22.3360    3.3690   27.7190 C   0  0  0  0  0  0  0  0  0  0  0  0
  -21.4980    3.7090   28.7520 C   0  0  0  0  0  0  0  0  0  0  0  0
  -21.9610    4.5100   29.7360 F   0  0  0  0  0  0  0  0  0  0  0  0
  -20.1930    3.2880   28.8540 C   0  0  0  0  0  0  0  0  0  0  0  0
  -19.7020    2.4820   27.8450 C   0  0  0  0  0  0  0  0  0  0  0  0
  -20.5060    2.1540   26.7750 C   0  0  0  0  0  0  0  0  0  0  0  0
  -20.0110    1.3070   25.7950 O   0  0  0  0  0  0  0  0  0  0  0  0
  -19.4350    1.7700   24.6600 C   0  0  0  0  0  0  0  0  0  0  0  0
  -18.8760    3.0230   24.6680 C   0  0  0  0  0  0  0  0  0  0  0  0
  -18.3080    3.5050   23.5810 N   0  0  0  0  0  0  0  0  0  0  0  0
  -18.3500    2.7550   22.4740 C   0  0  0  0  0  0  0  0  0  0  0  0
  -18.8260    1.5070   22.4060 N   0  0  0  0  0  0  0  0  0  0  0  0
  -19.4060    1.0170   23.4930 C   0  0  0  0  0  0  0  0  0  0  0  0
  -19.8810   -0.2540   23.4700 N   0  0  0  0  0  0  0  0  0  0  0  0
  -19.8140   -1.2330   22.3980 C   0  0  0  0  0  0  0  0  0  0  0  0
  -20.3930   -1.0790   24.5580 C   0  0  0  0  0  0  0  0  0  0  0  0
  -20.2760   -2.2670   23.5140 C   0  0  0  0  0  0  0  0  0  0  0  0
  -19.2470   -3.3540   23.8220 C   0  0  0  0  0  0  0  0  0  0  0  0
  -19.1440   -4.3400   22.6810 C   0  0  0  0  0  0  0  0  0  0  0  0
  -21.6130   -2.9390   23.2140 C   0  0  0  0  0  0  0  0  0  0  0  0
  -21.5160   -3.9270   22.0780 C   0  0  0  0  0  0  0  0  0  0  0  0
  -20.4730   -4.9670   22.3480 N   0  0  0  0  0  0  0  0  0  0  0  0
  -20.3530   -5.8360   21.1340 C   0  0  0  0  0  0  0  0  0  0  0  0
  -19.4230   -7.0350   21.3230 C   0  0  1  0  0  0  0  0  0  0  0  0
  -19.7610   -7.8590   22.5740 C   0  0  0  0  0  0  0  0  0  0  0  0
  -18.8560   -9.0680   22.7420 C   0  0  0  0  0  0  0  0  0  0  0  0
  -19.3950   -7.9160   20.0760 C   0  0  0  0  0  0  0  0  0  0  0  0
  -18.4390   -9.0860   20.2570 C   0  0  0  0  0  0  0  0  0  0  0  0
  -18.8180   -9.9040   21.4810 C   0  0  1  0  0  0  0  0  0  0  0  0
  -17.8580  -11.0120   21.6270 N   0  0  0  0  0  0  0  0  0  0  0  0
  -18.3110  -12.5760   21.7190 S   0  0  0  0  0  0  0  0  0  0  0  0
  -19.3160  -12.7250   20.7100 O   0  0  0  0  0  0  0  0  0  0  0  0
  -17.1120  -13.3610   21.6370 O   0  0  0  0  0  0  0  0  0  0  0  0
  -19.0530  -12.7750   23.3300 C   0  0  0  0  0  0  0  0  0  0  0  0
  -20.2900  -13.6500   23.3120 C   0  0  0  0  0  0  0  0  0  0  0  0
  1  2  1  0
  2  3  1  0
  2  4  1  0
  4  5  1  0
  5  6  1  0
  4  7  1  0
  7  8  2  0
  7  9  1  0
  9 10  2  0
 10 11  1  0
 11 12  1  0
 11 13  2  0
 13 14  1  0
  9 15  1  0
 14 15  2  0
 15 16  1  0
 16 17  1  0
 17 18  2  0
 18 19  1  0
 19 20  2  0
 20 21  1  0
 21 22  2  0
 17 22  1  0
 22 23  1  0
 23 24  1  0
 23 25  1  0
 24 26  1  0
 25 26  1  0
 26 27  1  0
 27 28  1  0
 26 29  1  0
 29 30  1  0
 30 31  1  0
 28 31  1  0
 31 32  1  0
 33 32  1  6
 33 34  1  0
 34 35  1  0
 33 36  1  0
 36 37  1  0
 37 38  1  0
 35 38  1  0
 38 39  1  1
 39 40  1  0
 40 41  2  0
 40 42  2  0
 40 43  1  0
 43 44  1  0
M  END
$$$$
