7ED2_A3P_A_301
     RDKit          3D

 42 44  0  0  0  0  0  0  0  0999 V2000
    3.6909   -1.8349    1.0217 P   0  0  0  0  0  5  0  0  0  0  0  0
    4.2190   -0.4203    1.1027 O   0  0  0  0  0  0  0  0  0  0  0  0
    4.4642   -2.7783    2.1933 O   0  0  0  0  0  0  0  0  0  0  0  0
    4.0247   -2.4733   -0.5104 O   0  0  0  0  0  0  0  0  0  0  0  0
    2.5736    2.7421   -1.7308 P   0  0  0  0  0  5  0  0  0  0  0  0
    1.8712    2.2186   -2.9637 O   0  0  0  0  0  0  0  0  0  0  0  0
    1.8425    4.1870   -1.2372 O   0  0  0  0  0  0  0  0  0  0  0  0
    4.1952    3.0460   -2.1052 O   0  0  0  0  0  0  0  0  0  0  0  0
    2.5007    1.5800   -0.4849 O   0  0  0  0  0  0  0  0  0  0  0  0
    1.1620    1.4619   -0.0628 C   0  0  0  0  0  0  0  0  0  0  0  0
    1.0504    0.3367    0.9739 C   0  0  1  0  0  0  0  0  0  0  0  0
   -0.2560    0.3371    1.5130 O   0  0  0  0  0  0  0  0  0  0  0  0
    1.3473   -1.0402    0.3613 C   0  0  1  0  0  0  0  0  0  0  0  0
    2.0076   -1.8581    1.3113 O   0  0  0  0  0  0  0  0  0  0  0  0
   -0.0399   -1.5754    0.1097 C   0  0  1  0  0  0  0  0  0  0  0  0
   -0.1048   -2.9731    0.2275 O   0  0  0  0  0  0  0  0  0  0  0  0
   -0.8588   -0.8973    1.1946 C   0  0  2  0  0  0  0  0  0  0  0  0
   -2.2356   -0.6846    0.7462 N   0  0  0  0  0  0  0  0  0  0  0  0
   -2.7245    0.3428    0.0025 C   0  0  0  0  0  0  0  0  0  0  0  0
   -4.0339    0.1872   -0.3386 N   0  0  0  0  0  0  0  0  0  0  0  0
   -4.3465   -0.9984    0.2181 C   0  0  0  0  0  0  0  0  0  0  0  0
   -5.5443   -1.7031    0.1842 C   0  0  0  0  0  0  0  0  0  0  0  0
   -6.6993   -1.1923   -0.4815 N   0  0  0  0  0  0  0  0  0  0  0  0
   -5.5819   -2.9181    0.8094 N   0  0  0  0  0  0  0  0  0  0  0  0
   -4.4789   -3.4290    1.4463 C   0  0  0  0  0  0  0  0  0  0  0  0
   -3.3051   -2.7281    1.4709 N   0  0  0  0  0  0  0  0  0  0  0  0
   -3.2744   -1.5210    0.8557 C   0  0  0  0  0  0  0  0  0  0  0  0
    4.0176   -3.6609    2.1393 H   0  0  0  0  0  0  0  0  0  0  0  0
    3.5435   -3.3386   -0.5326 H   0  0  0  0  0  0  0  0  0  0  0  0
    2.3745    4.4839   -0.4561 H   0  0  0  0  0  0  0  0  0  0  0  0
    4.5782    2.1555   -2.3096 H   0  0  0  0  0  0  0  0  0  0  0  0
    0.8294    2.4085    0.4198 H   0  0  0  0  0  0  0  0  0  0  0  0
    0.4836    1.2285   -0.9160 H   0  0  0  0  0  0  0  0  0  0  0  0
    1.7665    0.5538    1.7970 H   0  0  0  0  0  0  0  0  0  0  0  0
    1.8786   -0.9781   -0.6191 H   0  0  0  0  0  0  0  0  0  0  0  0
   -0.3945   -1.2518   -0.8984 H   0  0  0  0  0  0  0  0  0  0  0  0
    0.3332   -3.3422   -0.5833 H   0  0  0  0  0  0  0  0  0  0  0  0
   -0.8620   -1.5231    2.1160 H   0  0  0  0  0  0  0  0  0  0  0  0
   -2.1319    1.1944   -0.3058 H   0  0  0  0  0  0  0  0  0  0  0  0
   -6.6793   -0.2625   -0.9561 H   0  0  0  0  0  0  0  0  0  0  0  0
   -7.5833   -1.7472   -0.4980 H   0  0  0  0  0  0  0  0  0  0  0  0
   -4.5377   -4.3941    1.9300 H   0  0  0  0  0  0  0  0  0  0  0  0
  1  2  2  0
  1  3  1  0
  1  4  1  0
  5  6  2  0
  5  7  1  0
  5  8  1  0
  5  9  1  0
  9 10  1  0
 11 10  1  0
 11 12  1  0
 11 13  1  0
  1 14  1  0
 13 14  1  0
 13 15  1  0
 15 16  1  0
 12 17  1  0
 15 17  1  0
 17 18  1  0
 18 19  1  0
 19 20  2  0
 20 21  1  0
 21 22  1  0
 22 23  1  0
 22 24  2  0
 24 25  1  0
 25 26  2  0
 18 27  1  0
 21 27  2  0
 26 27  1  0
  3 28  1  0
  4 29  1  0
  7 30  1  0
  8 31  1  0
 10 32  1  0
 10 33  1  0
 11 34  1  1
 13 35  1  6
 15 36  1  6
 16 37  1  0
 17 38  1  1
 19 39  1  0
 23 40  1  0
 23 41  1  0
 25 42  1  0
M  END
