7ED2_A3P_B_301
     RDKit          3D

 27 29  0  0  0  0  0  0  0  0999 V2000
  -21.6270  -18.0840    8.6760 P   0  0  0  0  0  0  0  0  0  0  0  0
  -21.5900  -18.5690    7.2060 O   0  0  0  0  0  0  0  0  0  0  0  0
  -20.2400  -17.6830    9.2360 O   0  0  0  0  0  0  0  0  0  0  0  0
  -22.6440  -17.0490    8.9690 O   0  0  0  0  0  0  0  0  0  0  0  0
  -20.3770  -24.1610   11.5390 P   0  0  0  0  0  0  0  0  0  0  0  0
  -20.1360  -24.4910   10.0280 O   0  0  0  0  0  0  0  0  0  0  0  0
  -19.1690  -23.6040   12.2100 O   0  0  0  0  0  0  0  0  0  0  0  0
  -20.9770  -25.3130   12.2640 O   0  0  0  0  0  0  0  0  0  0  0  0
  -21.5260  -23.0500   11.6000 O   0  0  0  0  0  0  0  0  0  0  0  0
  -21.1830  -21.7400   11.0570 C   0  0  0  0  0  0  0  0  0  0  0  0
  -22.3230  -20.7950   11.3020 C   0  0  1  0  0  0  0  0  0  0  0  0
  -22.6310  -20.7150   12.7060 O   0  0  0  0  0  0  0  0  0  0  0  0
  -22.0150  -19.3510   10.9320 C   0  0  1  0  0  0  0  0  0  0  0  0
  -22.0670  -19.4030    9.5400 O   0  0  0  0  0  0  0  0  0  0  0  0
  -23.0790  -18.6100   11.7210 C   0  0  1  0  0  0  0  0  0  0  0  0
  -24.2580  -18.4040   10.9860 O   0  0  0  0  0  0  0  0  0  0  0  0
  -23.3150  -19.5150   12.9350 C   0  0  2  0  0  0  0  0  0  0  0  0
  -22.7870  -18.9330   14.1460 N   0  0  0  0  0  0  0  0  0  0  0  0
  -21.4880  -18.4020   14.3480 C   0  0  0  0  0  0  0  0  0  0  0  0
  -21.3590  -17.8450   15.5390 N   0  0  0  0  0  0  0  0  0  0  0  0
  -22.5980  -18.0420   16.1480 C   0  0  0  0  0  0  0  0  0  0  0  0
  -23.0810  -17.6770   17.4160 C   0  0  0  0  0  0  0  0  0  0  0  0
  -22.3550  -16.9960   18.2990 N   0  0  0  0  0  0  0  0  0  0  0  0
  -24.3680  -17.9770   17.7090 N   0  0  0  0  0  0  0  0  0  0  0  0
  -25.0870  -18.6420   16.7900 C   0  0  0  0  0  0  0  0  0  0  0  0
  -24.7460  -19.0290   15.5590 N   0  0  0  0  0  0  0  0  0  0  0  0
  -23.4730  -18.7100   15.3080 C   0  0  0  0  0  0  0  0  0  0  0  0
  1  2  2  0
  1  3  1  0
  1  4  1  0
  5  6  2  0
  5  7  1  0
  5  8  1  0
  5  9  1  0
  9 10  1  0
 11 10  1  1
 11 12  1  0
 11 13  1  0
  1 14  1  0
 13 14  1  6
 13 15  1  0
 15 16  1  6
 12 17  1  0
 15 17  1  0
 17 18  1  1
 18 19  1  0
 19 20  2  0
 20 21  1  0
 21 22  1  0
 22 23  1  0
 22 24  2  0
 24 25  1  0
 25 26  2  0
 18 27  1  0
 21 27  2  0
 26 27  1  0
M  END
$$$$
7ED2_A3P_A_301
     RDKit          3D

 27 29  0  0  0  0  0  0  0  0999 V2000
  -17.9800   -4.8020   17.9310 P   0  0  0  0  0  0  0  0  0  0  0  0
  -17.7980   -4.7950   16.4160 O   0  0  0  0  0  0  0  0  0  0  0  0
  -18.6190   -6.0960   18.3680 O   0  0  0  0  0  0  0  0  0  0  0  0
  -18.6430   -3.5720   18.4840 O   0  0  0  0  0  0  0  0  0  0  0  0
  -13.6270   -5.9450   23.0960 P   0  0  0  0  0  0  0  0  0  0  0  0
  -14.2650   -7.2560   23.3410 O   0  0  0  0  0  0  0  0  0  0  0  0
  -12.2160   -5.8810   23.6260 O   0  0  0  0  0  0  0  0  0  0  0  0
  -14.4870   -4.8040   23.7230 O   0  0  0  0  0  0  0  0  0  0  0  0
  -13.5580   -5.6630   21.4970 O   0  0  0  0  0  0  0  0  0  0  0  0
  -14.7760   -5.7900   20.8010 C   0  0  0  0  0  0  0  0  0  0  0  0
  -14.5060   -5.6820   19.3330 C   0  0  1  0  0  0  0  0  0  0  0  0
  -13.5490   -6.6910   18.9400 O   0  0  0  0  0  0  0  0  0  0  0  0
  -15.7270   -5.9800   18.5020 C   0  0  1  0  0  0  0  0  0  0  0  0
  -16.4800   -4.7920   18.5660 O   0  0  0  0  0  0  0  0  0  0  0  0
  -15.0830   -6.3120   17.1400 C   0  0  1  0  0  0  0  0  0  0  0  0
  -15.0170   -5.1580   16.3290 O   0  0  0  0  0  0  0  0  0  0  0  0
  -13.6990   -6.8710   17.5450 C   0  0  2  0  0  0  0  0  0  0  0  0
  -13.5660   -8.2880   17.2800 N   0  0  0  0  0  0  0  0  0  0  0  0
  -14.4640   -9.2830   17.6510 C   0  0  0  0  0  0  0  0  0  0  0  0
  -14.1320  -10.4650   17.1620 N   0  0  0  0  0  0  0  0  0  0  0  0
  -12.9150  -10.2290   16.5230 C   0  0  0  0  0  0  0  0  0  0  0  0
  -12.0620  -11.0750   15.8060 C   0  0  0  0  0  0  0  0  0  0  0  0
  -12.3560  -12.3590   15.6200 N   0  0  0  0  0  0  0  0  0  0  0  0
  -10.9560  -10.5410   15.2230 N   0  0  0  0  0  0  0  0  0  0  0  0
  -10.7090   -9.2390   15.4060 C   0  0  0  0  0  0  0  0  0  0  0  0
  -11.4650   -8.3370   16.0340 N   0  0  0  0  0  0  0  0  0  0  0  0
  -12.5630   -8.9040   16.5790 C   0  0  0  0  0  0  0  0  0  0  0  0
  1  2  2  0
  1  3  1  0
  1  4  1  0
  5  6  2  0
  5  7  1  0
  5  8  1  0
  5  9  1  0
  9 10  1  0
 11 10  1  1
 11 12  1  0
 11 13  1  0
  1 14  1  0
 13 14  1  6
 13 15  1  0
 15 16  1  6
 12 17  1  0
 15 17  1  0
 17 18  1  1
 18 19  1  0
 19 20  2  0
 20 21  1  0
 21 22  1  0
 22 23  1  0
 22 24  2  0
 24 25  1  0
 25 26  2  0
 18 27  1  0
 21 27  2  0
 26 27  1  0
M  END
$$$$
