7EBG_J0L_A_502
     RDKit          3D

 14 15  0  0  0  0  0  0  0  0999 V2000
    0.5302    2.5478   17.8936 C   0  0  0  0  0  0  0  0  0  0  0  0
   -0.5567    1.8022   17.3943 C   0  0  0  0  0  0  0  0  0  0  0  0
   -0.4063    0.9640   16.2928 C   0  0  0  0  0  0  0  0  0  0  0  0
    1.8006    2.4867   17.3125 C   0  0  0  0  0  0  0  0  0  0  0  0
    1.9072    1.6375   16.2121 C   0  0  0  0  0  0  0  0  0  0  0  0
    0.8407    0.8898   15.7065 C   0  0  0  0  0  0  0  0  0  0  0  0
    1.3005    0.0825   14.5157 C   0  0  1  0  0  0  0  0  0  0  0  0
    2.7888    0.4811   14.4256 C   0  0  0  0  0  0  0  0  0  0  0  0
    1.1713   -1.4226   14.7527 C   0  0  0  0  0  0  0  0  0  0  0  0
    0.5867    0.5134   13.2370 C   0  0  0  0  0  0  0  0  0  0  0  0
    2.8611    4.1056   18.8979 C   0  0  0  0  0  0  0  0  0  0  0  0
    2.8820    3.2043   17.7716 N   0  0  0  0  0  0  0  0  0  0  0  0
    3.0421    1.3817   15.4460 N   0  0  0  0  0  0  0  0  0  0  0  0
    3.6127    0.0943   13.6141 O   0  0  0  0  0  0  0  0  0  0  0  0
  1  2  2  0
  2  3  1  0
  1  4  1  0
  4  5  2  0
  3  6  2  0
  5  6  1  0
  6  7  1  0
  7  8  1  0
  7  9  1  1
  7 10  1  0
 11 12  1  0
  4 12  1  0
  5 13  1  0
  8 13  1  0
  8 14  2  0
M  END
