7VQ9_ISY_B_301
     RDKit          3D

 26 25  0  0  0  0  0  0  0  0999 V2000
    0.9626   -0.5552    1.4596 P   0  0  1  0  0  5  0  0  0  0  0  0
    1.6548   -0.4379   -0.0923 O   0  0  0  0  0  0  0  0  0  0  0  0
    0.6572   -1.2796   -1.1901 P   0  0  1  0  0  5  0  0  0  0  0  0
    2.1191   -1.0009    2.6149 O   0  0  0  0  0  0  0  0  0  0  0  0
    0.4041    0.7978    1.8364 O   0  0  0  0  0  0  0  0  0  0  0  0
   -0.3034   -1.6804    1.4421 O   0  0  0  0  0  0  0  0  0  0  0  0
    0.0454   -0.3419   -2.2082 O   0  0  0  0  0  0  0  0  0  0  0  0
    1.5985   -2.4151   -2.0215 O   0  0  0  0  0  0  0  0  0  0  0  0
   -0.8964   -2.3134   -0.1720 S   0  0  0  0  0  0  0  0  0  0  0  0
   -0.4537   -3.9783   -0.7845 C   0  0  0  0  0  0  0  0  0  0  0  0
    1.0319   -4.0370   -1.1436 C   0  0  0  0  0  0  0  0  0  0  0  0
    1.4329   -2.8458   -1.9823 C   0  0  0  0  0  0  0  0  0  0  0  0
    1.3996   -2.9278   -3.4850 C   0  0  0  0  0  0  0  0  0  0  0  0
    1.8126   -1.7027   -1.3925 C   0  0  0  0  0  0  0  0  0  0  0  0
    2.0123   -1.9797    2.7226 H   0  0  0  0  0  0  0  0  0  0  0  0
   -0.6267   -1.7128    2.3777 H   0  0  0  0  0  0  0  0  0  0  0  0
    2.4169   -2.5222   -1.4745 H   0  0  0  0  0  0  0  0  0  0  0  0
   -1.0750   -4.2716   -1.6564 H   0  0  0  0  0  0  0  0  0  0  0  0
   -0.6612   -4.7019    0.0319 H   0  0  0  0  0  0  0  0  0  0  0  0
    1.6345   -4.0629   -0.2137 H   0  0  0  0  0  0  0  0  0  0  0  0
    1.2492   -4.9761   -1.6982 H   0  0  0  0  0  0  0  0  0  0  0  0
    0.6786   -2.1845   -3.8860 H   0  0  0  0  0  0  0  0  0  0  0  0
    1.0929   -3.9380   -3.8288 H   0  0  0  0  0  0  0  0  0  0  0  0
    2.4094   -2.7140   -3.8949 H   0  0  0  0  0  0  0  0  0  0  0  0
    1.8389   -1.6162   -0.3104 H   0  0  0  0  0  0  0  0  0  0  0  0
    2.0998   -0.8393   -1.9858 H   0  0  0  0  0  0  0  0  0  0  0  0
  1  2  1  1
  3  2  1  6
  1  4  1  0
  1  5  2  0
  1  6  1  0
  3  7  2  0
  3  8  1  0
  3  9  1  0
  9 10  1  0
 10 11  1  0
 11 12  1  0
 12 13  1  0
 12 14  2  3
  4 15  1  0
  6 16  1  0
  8 17  1  0
 10 18  1  0
 10 19  1  0
 11 20  1  0
 11 21  1  0
 13 22  1  0
 13 23  1  0
 13 24  1  0
 14 25  1  0
 14 26  1  0
M  END
