7T0D_FPP_B_646
     RDKit          3D

 24 23  0  0  0  0  0  0  0  0999 V2000
   35.1350  -30.3611   -0.5743 C   0  0  0  0  0  0  0  0  0  0  0  0
   35.7315  -30.0867   -1.7861 O   0  0  0  0  0  0  0  0  0  0  0  0
   33.8930  -31.1137   -0.7983 C   0  0  0  0  0  0  0  0  0  0  0  0
   33.1851  -31.5703    0.2294 C   0  0  0  0  0  0  0  0  0  0  0  0
   33.7160  -31.3764    1.5868 C   0  0  0  0  0  0  0  0  0  0  0  0
   31.8740  -32.2665   -0.0095 C   0  0  0  0  0  0  0  0  0  0  0  0
   31.5429  -32.3093   -1.4840 C   0  0  0  0  0  0  0  0  0  0  0  0
   30.2023  -32.9175   -1.6333 C   0  0  0  0  0  0  0  0  0  0  0  0
   29.6327  -33.1601   -2.8239 C   0  0  0  0  0  0  0  0  0  0  0  0
   30.4329  -32.9354   -4.0345 C   0  0  0  0  0  0  0  0  0  0  0  0
   28.2297  -33.6415   -2.8228 C   0  0  0  0  0  0  0  0  0  0  0  0
   27.6696  -33.8450   -4.2100 C   0  0  0  0  0  0  0  0  0  0  0  0
   28.1213  -35.1297   -4.8051 C   0  0  0  0  0  0  0  0  0  0  0  0
   27.2830  -35.9125   -5.4684 C   0  0  0  0  0  0  0  0  0  0  0  0
   25.8649  -35.4670   -5.5551 C   0  0  0  0  0  0  0  0  0  0  0  0
   27.7810  -37.1725   -6.0834 C   0  0  0  0  0  0  0  0  0  0  0  0
   37.1381  -29.1696   -1.6336 P   0  0  2  0  0  5  0  0  0  0  0  0
   37.7312  -28.8046   -2.9670 O   0  0  0  0  0  0  0  0  0  0  0  0
   38.2550  -30.0149   -0.6885 O   0  0  0  0  0  0  0  0  0  0  0  0
   36.7156  -27.7390   -0.8348 O   0  0  0  0  0  0  0  0  0  0  0  0
   36.4395  -26.5780   -2.0347 P   0  0  2  0  0  5  0  0  0  0  0  0
   35.4074  -27.2027   -2.9746 O   0  0  0  0  0  0  0  0  0  0  0  0
   37.8511  -26.1845   -2.8749 O   0  0  0  0  0  0  0  0  0  0  0  0
   35.7794  -25.2175   -1.2817 O   0  0  0  0  0  0  0  0  0  0  0  0
  1  2  1  1
  1  3  1  0
  3  4  2  0
  5  4  1  1
  6  4  1  1
  6  7  1  0
  7  8  1  6
  8  9  2  0
 10  9  1  1
 11  9  1  6
 11 12  1  0
 12 13  1  1
 13 14  2  0
 15 14  1  1
 16 14  1  1
 17  2  1  0
 17 18  2  0
 17 19  1  1
 17 20  1  0
 20 21  1  0
 21 22  2  0
 21 23  1  6
 21 24  1  0
M  END
$$$$
