7ODX_DGP_A_401
     RDKit          3D

 37 39  0  0  0  0  0  0  0  0999 V2000
   -0.6173   -0.3973    3.7289 P   0  0  0  0  0  5  0  0  0  0  0  0
   -1.4047    0.8208    3.2983 O   0  0  0  0  0  0  0  0  0  0  0  0
   -1.6805   -1.5439    4.3745 O   0  0  0  0  0  0  0  0  0  0  0  0
    0.4997    0.0509    4.9184 O   0  0  0  0  0  0  0  0  0  0  0  0
    0.2028   -1.0859    2.4000 O   0  0  0  0  0  0  0  0  0  0  0  0
    0.9184   -0.0680    1.7398 C   0  0  0  0  0  0  0  0  0  0  0  0
    1.8499   -0.6965    0.6972 C   0  0  1  0  0  0  0  0  0  0  0  0
    1.0919   -1.4867   -0.1973 O   0  0  0  0  0  0  0  0  0  0  0  0
    2.6112    0.3797   -0.0924 C   0  0  1  0  0  0  0  0  0  0  0  0
    3.9630    0.0241   -0.2299 O   0  0  0  0  0  0  0  0  0  0  0  0
    1.9428    0.3497   -1.4358 C   0  0  0  0  0  0  0  0  0  0  0  0
    1.4053   -1.0648   -1.5042 C   0  0  2  0  0  0  0  0  0  0  0  0
    0.2241   -1.1313   -2.3664 N   0  0  0  0  0  0  0  0  0  0  0  0
    0.2087   -1.2863   -3.7158 C   0  0  0  0  0  0  0  0  0  0  0  0
   -1.0395   -1.2124   -4.2553 N   0  0  0  0  0  0  0  0  0  0  0  0
   -1.8145   -0.9912   -3.1770 C   0  0  0  0  0  0  0  0  0  0  0  0
   -3.1877   -0.8132   -3.1017 C   0  0  0  0  0  0  0  0  0  0  0  0
   -3.9088   -0.8580   -4.1339 O   0  0  0  0  0  0  0  0  0  0  0  0
   -3.7380   -0.5862   -1.8699 N   0  0  0  0  0  0  0  0  0  0  0  0
   -2.9538   -0.5329   -0.7402 C   0  0  0  0  0  0  0  0  0  0  0  0
   -3.5506   -0.3050    0.5358 N   0  0  0  0  0  0  0  0  0  0  0  0
   -1.5990   -0.7050   -0.8311 N   0  0  0  0  0  0  0  0  0  0  0  0
   -1.0644   -0.9338   -2.0546 C   0  0  0  0  0  0  0  0  0  0  0  0
   -2.2438   -1.8243    3.6095 H   0  0  0  0  0  0  0  0  0  0  0  0
    1.0051   -0.7783    5.1129 H   0  0  0  0  0  0  0  0  0  0  0  0
    1.5485    0.5122    2.4540 H   0  0  0  0  0  0  0  0  0  0  0  0
    0.2105    0.6190    1.2226 H   0  0  0  0  0  0  0  0  0  0  0  0
    2.5670   -1.3586    1.2323 H   0  0  0  0  0  0  0  0  0  0  0  0
    2.5284    1.3991    0.3543 H   0  0  0  0  0  0  0  0  0  0  0  0
    4.3995    0.2403    0.6352 H   0  0  0  0  0  0  0  0  0  0  0  0
    2.6458    0.5663   -2.2701 H   0  0  0  0  0  0  0  0  0  0  0  0
    1.1067    1.0847   -1.4520 H   0  0  0  0  0  0  0  0  0  0  0  0
    2.1927   -1.7401   -1.9100 H   0  0  0  0  0  0  0  0  0  0  0  0
    1.1005   -1.4400   -4.3096 H   0  0  0  0  0  0  0  0  0  0  0  0
   -4.7714   -0.4523   -1.7881 H   0  0  0  0  0  0  0  0  0  0  0  0
   -2.9616   -0.2908    1.3966 H   0  0  0  0  0  0  0  0  0  0  0  0
   -4.5812   -0.1647    0.6259 H   0  0  0  0  0  0  0  0  0  0  0  0
  1  2  2  0
  1  3  1  0
  1  4  1  0
  1  5  1  0
  5  6  1  0
  7  6  1  0
  7  8  1  0
  7  9  1  0
  9 10  1  0
  9 11  1  0
  8 12  1  0
 11 12  1  0
 12 13  1  0
 13 14  1  0
 14 15  2  0
 15 16  1  0
 16 17  1  0
 17 18  2  0
 17 19  1  0
 19 20  1  0
 20 21  1  0
 20 22  2  0
 13 23  1  0
 16 23  2  0
 22 23  1  0
  3 24  1  0
  4 25  1  0
  6 26  1  0
  6 27  1  0
  7 28  1  1
  9 29  1  1
 10 30  1  0
 11 31  1  0
 11 32  1  0
 12 33  1  6
 14 34  1  0
 19 35  1  0
 21 36  1  0
 21 37  1  0
M  END
