7MSR_DCA_A_401
     RDKit          3D

 83 85  0  0  0  0  0  0  0  0999 V2000
   14.5842   -7.5155   17.0928 N   0  0  0  0  0  0  0  0  0  0  0  0
   13.5591   -7.0619   16.3015 C   0  0  0  0  0  0  0  0  0  0  0  0
   12.8702   -5.9307   16.6407 N   0  0  0  0  0  0  0  0  0  0  0  0
   13.2387   -5.2709   17.7665 C   0  0  0  0  0  0  0  0  0  0  0  0
   14.2407   -5.7038   18.5654 C   0  0  0  0  0  0  0  0  0  0  0  0
   14.9455   -6.8572   18.2350 C   0  0  0  0  0  0  0  0  0  0  0  0
   15.9966   -7.3605   19.0602 N   0  0  0  0  0  0  0  0  0  0  0  0
   14.3494   -4.9198   19.6531 N   0  0  0  0  0  0  0  0  0  0  0  0
   13.3656   -3.9985   19.4575 C   0  0  0  0  0  0  0  0  0  0  0  0
   12.6786   -4.1727   18.2956 N   0  0  0  0  0  0  0  0  0  0  0  0
   11.4369   -3.5038   17.8877 C   0  0  1  0  0  0  0  0  0  0  0  0
   11.0200   -2.4074   18.8818 C   0  0  2  0  0  0  0  0  0  0  0  0
   10.0285   -2.8594   19.7763 O   0  0  0  0  0  0  0  0  0  0  0  0
   10.5556   -1.2540   17.9936 C   0  0  2  0  0  0  0  0  0  0  0  0
    9.2227   -0.8612   18.2615 O   0  0  0  0  0  0  0  0  0  0  0  0
    9.1868    0.1463   19.6368 P   0  0  2  0  0  5  0  0  0  0  0  0
    8.9222    1.5729   19.2120 O   0  0  0  0  0  0  0  0  0  0  0  0
   10.6598    0.0668   20.4702 O   0  0  0  0  0  0  0  0  0  0  0  0
    7.9387   -0.3663   20.6586 O   0  0  0  0  0  0  0  0  0  0  0  0
   10.6376   -1.8616   16.5933 C   0  0  2  0  0  0  0  0  0  0  0  0
   11.5982   -2.8870   16.6320 O   0  0  0  0  0  0  0  0  0  0  0  0
   11.0079   -0.8314   15.5220 C   0  0  2  0  0  0  0  0  0  0  0  0
   11.2751   -1.5097   14.3186 O   0  0  0  0  0  0  0  0  0  0  0  0
   12.8730   -1.1740   13.8259 P   0  0  2  0  0  5  0  0  0  0  0  0
   13.7393   -2.4181   13.8486 O   0  0  0  0  0  0  0  0  0  0  0  0
   13.5362   -0.0231   14.8757 O   0  0  0  0  0  0  0  0  0  0  0  0
   12.8311   -0.5184   12.2571 O   0  0  0  0  0  0  0  0  0  0  0  0
   11.9103    0.9175   12.2957 P   0  0  2  0  0  5  0  0  0  0  0  0
   10.4741    0.5746   11.9705 O   0  0  0  0  0  0  0  0  0  0  0  0
   12.5109    1.9593   11.1030 O   0  0  0  0  0  0  0  0  0  0  0  0
   11.9577    1.7017   13.8168 O   0  0  0  0  0  0  0  0  0  0  0  0
   11.9823    4.1206   13.5176 C   0  0  1  0  0  0  0  0  0  0  0  0
   11.1319    2.8457   13.7719 C   0  0  2  0  0  0  0  0  0  0  0  0
   11.0368    5.2569   13.0547 C   0  0  1  0  0  0  0  0  0  0  0  0
   12.6794    4.5624   14.8249 C   0  0  1  0  0  0  0  0  0  0  0  0
   13.0339    3.8507   12.3898 C   0  0  1  0  0  0  0  0  0  0  0  0
   14.2441    4.5046   12.6875 O   0  0  0  0  0  0  0  0  0  0  0  0
   13.3000    2.3794   12.1485 C   0  0  0  0  0  0  0  0  0  0  0  0
   13.7936    2.0155   11.0455 O   0  0  0  0  0  0  0  0  0  0  0  0
   13.0044    1.4052   13.1620 N   0  0  0  0  0  0  0  0  0  0  0  0
   11.6563    0.8895   13.3999 C   0  0  2  0  0  0  0  0  0  0  0  0
   11.7038   -0.5481   13.9237 C   0  0  1  0  0  0  0  0  0  0  0  0
   13.0262   -1.1983   13.6364 C   0  0  0  0  0  0  0  0  0  0  0  0
   13.0527   -2.2862   12.9987 O   0  0  0  0  0  0  0  0  0  0  0  0
   14.2455   -0.5981   14.0902 N   0  0  0  0  0  0  0  0  0  0  0  0
   15.5202   -0.8703   13.4265 C   0  0  2  0  0  0  0  0  0  0  0  0
   16.6643   -0.1524   14.1305 C   0  0  2  0  0  0  0  0  0  0  0  0
   13.2898   -7.6044   15.4043 H   0  0  0  0  0  0  0  0  0  0  0  0
   16.9566   -6.9502   18.9957 H   0  0  0  0  0  0  0  0  0  0  0  0
   15.8271   -8.1447   19.7292 H   0  0  0  0  0  0  0  0  0  0  0  0
   13.1349   -3.2243   20.1784 H   0  0  0  0  0  0  0  0  0  0  0  0
   10.6413   -4.2787   17.7969 H   0  0  0  0  0  0  0  0  0  0  0  0
   11.8991   -2.0634   19.4711 H   0  0  0  0  0  0  0  0  0  0  0  0
    9.1993   -2.3398   19.6089 H   0  0  0  0  0  0  0  0  0  0  0  0
   11.2908   -0.4141   18.0657 H   0  0  0  0  0  0  0  0  0  0  0  0
   11.3454    0.3022   19.7954 H   0  0  0  0  0  0  0  0  0  0  0  0
    7.6024    0.4655   21.0790 H   0  0  0  0  0  0  0  0  0  0  0  0
    9.6555   -2.3143   16.3210 H   0  0  0  0  0  0  0  0  0  0  0  0
   11.9160   -0.2873   15.8665 H   0  0  0  0  0  0  0  0  0  0  0  0
   10.1745   -0.1015   15.4030 H   0  0  0  0  0  0  0  0  0  0  0  0
   13.8306    0.7152   14.2852 H   0  0  0  0  0  0  0  0  0  0  0  0
   13.4895    1.8100   11.1037 H   0  0  0  0  0  0  0  0  0  0  0  0
   10.5704    2.9948   14.7252 H   0  0  0  0  0  0  0  0  0  0  0  0
   10.3961    2.7189   12.9491 H   0  0  0  0  0  0  0  0  0  0  0  0
   11.0031    6.0806   13.8005 H   0  0  0  0  0  0  0  0  0  0  0  0
   11.3810    5.6921   12.0923 H   0  0  0  0  0  0  0  0  0  0  0  0
   10.0021    4.8757   12.9139 H   0  0  0  0  0  0  0  0  0  0  0  0
   13.4067    3.7985   15.1664 H   0  0  0  0  0  0  0  0  0  0  0  0
   13.2152    5.5238   14.6813 H   0  0  0  0  0  0  0  0  0  0  0  0
   11.9366    4.7107   15.6325 H   0  0  0  0  0  0  0  0  0  0  0  0
   12.6264    4.2799   11.4429 H   0  0  0  0  0  0  0  0  0  0  0  0
   14.0713    5.0955   13.4668 H   0  0  0  0  0  0  0  0  0  0  0  0
   13.7850    1.0146   13.7375 H   0  0  0  0  0  0  0  0  0  0  0  0
   11.0997    0.8987   12.4374 H   0  0  0  0  0  0  0  0  0  0  0  0
   11.0971    1.5462   14.1035 H   0  0  0  0  0  0  0  0  0  0  0  0
   11.5466   -0.5356   15.0248 H   0  0  0  0  0  0  0  0  0  0  0  0
   10.8737   -1.1369   13.4756 H   0  0  0  0  0  0  0  0  0  0  0  0
   14.2121    0.0568   14.9036 H   0  0  0  0  0  0  0  0  0  0  0  0
   15.4710   -0.5244   12.3729 H   0  0  0  0  0  0  0  0  0  0  0  0
   15.7144   -1.9643   13.4342 H   0  0  0  0  0  0  0  0  0  0  0  0
   17.6289   -0.4247   13.6558 H   0  0  0  0  0  0  0  0  0  0  0  0
   16.6864   -0.4403   15.2029 H   0  0  0  0  0  0  0  0  0  0  0  0
   16.5220    0.9472   14.0571 H   0  0  0  0  0  0  0  0  0  0  0  0
  1  2  2  0
  2  3  1  0
  3  4  2  0
  4  5  1  0
  1  6  1  0
  5  6  2  0
  6  7  1  0
  5  8  1  0
  8  9  2  0
  4 10  1  0
  9 10  1  0
 11 10  1  0
 11 12  1  0
 12 13  1  0
 12 14  1  0
 14 15  1  0
 16 15  1  6
 16 17  2  0
 16 18  1  0
 16 19  1  0
 14 20  1  0
 11 21  1  0
 20 21  1  0
 20 22  1  0
 22 23  1  0
 24 23  1  1
 24 25  2  0
 24 26  1  0
 24 27  1  0
 28 27  1  1
 28 29  2  0
 28 30  1  0
 28 31  1  0
 31 33  1  0
 32 33  1  0
 32 34  1  0
 32 35  1  0
 32 36  1  6
 36 37  1  0
 36 38  1  0
 38 39  2  0
 38 40  1  0
 40 41  1  0
 41 42  1  0
 42 43  1  0
 43 44  2  0
 43 45  1  0
 45 46  1  0
 46 47  1  0
  2 48  1  0
  7 49  1  0
  7 50  1  0
  9 51  1  0
 11 52  1  6
 12 53  1  1
 13 54  1  0
 14 55  1  6
 18 56  1  0
 19 57  1  0
 20 58  1  6
 22 59  1  1
 22 60  1  0
 26 61  1  0
 30 62  1  0
 33 63  1  1
 33 64  1  0
 34 65  1  1
 34 66  1  0
 34 67  1  0
 35 68  1  1
 35 69  1  0
 35 70  1  0
 36 71  1  6
 37 72  1  0
 40 73  1  0
 41 74  1  6
 41 75  1  0
 42 76  1  1
 42 77  1  0
 45 78  1  0
 46 79  1  6
 46 80  1  0
 47 81  1  6
 47 82  1  0
 47 83  1  0
M  END
