7Q27_8KC_A_707
     RDKit          3D

 35 37  0  0  0  0  0  0  0  0999 V2000
  -13.9880  -13.2360   21.9090 C   0  0  0  0  0  0  0  0  0  0  0  0
  -14.8880  -11.9260   21.9480 C   0  0  0  0  0  0  0  0  0  0  0  0
  -14.0380  -10.7130   21.5210 C   0  0  0  0  0  0  0  0  0  0  0  0
  -14.8690   -9.4360   21.4410 C   0  0  0  0  0  0  0  0  0  0  0  0
  -14.0270   -8.1980   21.1850 C   0  0  1  0  0  0  0  0  0  0  0  0
  -15.4470   -7.8010   26.0640 C   0  0  0  0  0  0  0  0  0  0  0  0
  -16.1510   -6.6940   25.5700 C   0  0  0  0  0  0  0  0  0  0  0  0
  -17.5380   -6.7410   25.5150 C   0  0  0  0  0  0  0  0  0  0  0  0
  -18.2280   -7.8670   25.9510 C   0  0  0  0  0  0  0  0  0  0  0  0
  -17.5390   -8.9620   26.4550 C   0  0  0  0  0  0  0  0  0  0  0  0
  -12.9160   -8.0420   22.2070 C   0  0  0  0  0  0  0  0  0  0  0  0
  -12.1940   -7.0430   18.0410 C   0  0  0  0  0  0  0  0  0  0  0  0
  -11.5550   -5.6900   17.6760 C   0  0  0  0  0  0  0  0  0  0  0  0
  -10.6690   -5.6940   16.3830 C   0  0  0  0  0  0  0  0  0  0  0  0
  -10.2060   -4.4740   15.9530 C   0  0  0  0  0  0  0  0  0  0  0  0
   -9.4190   -4.3900   14.8240 C   0  0  0  0  0  0  0  0  0  0  0  0
  -11.4990   -8.9080   24.6810 C   0  0  0  0  0  0  0  0  0  0  0  0
  -12.2410   -7.5960   24.5440 C   0  0  2  0  0  0  0  0  0  0  0  0
  -12.8650   -7.1630   25.8890 C   0  0  0  0  0  0  0  0  0  0  0  0
  -14.0720   -8.0680   26.2520 C   0  0  0  0  0  0  0  0  0  0  0  0
  -14.0150   -9.3440   26.8100 C   0  0  0  0  0  0  0  0  0  0  0  0
  -16.1340   -8.9150   26.5120 C   0  0  0  0  0  0  0  0  0  0  0  0
  -12.8230   -6.9470   19.4500 C   0  0  1  0  0  0  0  0  0  0  0  0
  -13.8850   -5.9010   19.4500 C   0  0  0  0  0  0  0  0  0  0  0  0
   -9.0980   -5.5550   14.1300 C   0  0  0  0  0  0  0  0  0  0  0  0
   -9.5590   -6.7820   14.5850 C   0  0  0  0  0  0  0  0  0  0  0  0
  -10.3590   -6.8470   15.7050 C   0  0  0  0  0  0  0  0  0  0  0  0
  -15.2420   -9.8140   26.9490 N   0  0  0  0  0  0  0  0  0  0  0  0
  -13.3080   -7.7530   23.5480 N   0  0  0  0  0  0  0  0  0  0  0  0
  -13.3580   -8.2570   19.8720 N   0  0  0  0  0  0  0  0  0  0  0  0
  -11.9320  -10.0120   24.2220 O   0  0  0  0  0  0  0  0  0  0  0  0
  -10.3930   -8.9280   25.2900 O   0  0  0  0  0  0  0  0  0  0  0  0
  -13.6380   -4.8670   20.0660 O   0  0  0  0  0  0  0  0  0  0  0  0
  -15.0000   -6.0420   18.8810 O   0  0  0  0  0  0  0  0  0  0  0  0
  -11.7600   -8.1030   21.9240 O   0  0  0  0  0  0  0  0  0  0  0  0
  1  2  1  0
  2  3  1  0
  3  4  1  0
  5  4  1  1
  6  7  2  0
  7  8  1  0
  8  9  2  0
  9 10  1  0
  5 11  1  0
 12 13  1  0
 13 14  1  0
 14 15  2  0
 15 16  1  0
 17 18  1  0
 18 19  1  1
  6 20  1  0
 19 20  1  0
 20 21  2  0
 10 22  2  0
  6 22  1  0
 23 12  1  6
 23 24  1  0
 16 25  2  0
 25 26  1  0
 26 27  2  0
 14 27  1  0
 22 28  1  0
 21 28  1  0
 11 29  1  0
 18 29  1  0
  5 30  1  0
 23 30  1  0
 17 31  2  0
 17 32  1  0
 24 33  2  0
 24 34  1  0
 11 35  2  0
M  END
$$$$
