7Q27_8KC_A_707
     RDKit          3D

 68 70  0  0  0  0  0  0  0  0999 V2000
  -16.2112   -6.2116   25.1610 C   0  0  0  0  0  0  0  0  0  0  0  0
  -15.7175   -6.0160   23.6624 C   0  0  0  0  0  0  0  0  0  0  0  0
  -14.1790   -5.9227   23.6426 C   0  0  0  0  0  0  0  0  0  0  0  0
  -13.6740   -5.1036   22.4586 C   0  0  0  0  0  0  0  0  0  0  0  0
  -14.1263   -5.6597   21.1194 C   0  0  1  0  0  0  0  0  0  0  0  0
  -14.7339  -12.0763   19.3457 C   0  0  0  0  0  0  0  0  0  0  0  0
  -15.3403  -12.6609   20.4662 C   0  0  0  0  0  0  0  0  0  0  0  0
  -15.0780  -13.9921   20.7629 C   0  0  0  0  0  0  0  0  0  0  0  0
  -14.2180  -14.7408   19.9666 C   0  0  0  0  0  0  0  0  0  0  0  0
  -13.6022  -14.1653   18.8633 C   0  0  0  0  0  0  0  0  0  0  0  0
  -13.3698   -6.9194   20.7397 C   0  0  0  0  0  0  0  0  0  0  0  0
  -15.1987   -7.3369   23.2326 C   0  0  0  0  0  0  0  0  0  0  0  0
  -16.0417   -8.6086   23.4432 C   0  0  0  0  0  0  0  0  0  0  0  0
  -17.4167   -8.3899   24.1632 C   0  0  0  0  0  0  0  0  0  0  0  0
  -17.3682   -8.1228   25.5100 C   0  0  0  0  0  0  0  0  0  0  0  0
  -18.5331   -7.9168   26.2182 C   0  0  0  0  0  0  0  0  0  0  0  0
  -14.1142   -9.7691   21.2632 C   0  0  0  0  0  0  0  0  0  0  0  0
  -14.9182   -8.8181   20.4030 C   0  0  2  0  0  0  0  0  0  0  0  0
  -15.6297   -9.5676   19.2550 C   0  0  0  0  0  0  0  0  0  0  0  0
  -14.7849  -10.7807   18.7835 C   0  0  0  0  0  0  0  0  0  0  0  0
  -13.9327  -10.8210   17.6812 C   0  0  0  0  0  0  0  0  0  0  0  0
  -13.8666  -12.8166   18.5625 C   0  0  0  0  0  0  0  0  0  0  0  0
  -16.0543   -6.2710   22.5100 C   0  0  1  0  0  0  0  0  0  0  0  0
  -16.0576   -5.0119   23.3078 C   0  0  0  0  0  0  0  0  0  0  0  0
  -19.7551   -7.9793   25.5513 C   0  0  0  0  0  0  0  0  0  0  0  0
  -19.7881   -8.2338   24.1878 C   0  0  0  0  0  0  0  0  0  0  0  0
  -18.6160   -8.4548   23.4979 C   0  0  0  0  0  0  0  0  0  0  0  0
  -13.4101  -12.0302   17.5785 N   0  0  0  0  0  4  0  0  0  0  0  0
  -14.0150   -7.8113   19.8322 N   0  0  0  0  0  0  0  0  0  0  0  0
  -15.5512   -6.0395   21.1412 N   0  0  0  0  0  0  0  0  0  0  0  0
  -14.4563  -10.1148   22.4381 O   0  0  0  0  0  0  0  0  0  0  0  0
  -13.0371  -10.2471   20.8094 O   0  0  0  0  0  0  0  0  0  0  0  0
  -16.8100   -4.9783   24.2786 O   0  0  0  0  0  0  0  0  0  0  0  0
  -15.3587   -4.0042   23.0197 O   0  0  0  0  0  0  0  0  0  0  0  0
  -12.3073   -7.2023   21.1993 O   0  0  0  0  0  0  0  0  0  0  0  0
  -17.2790   -6.2768   25.1791 H   0  0  0  0  0  0  0  0  0  0  0  0
  -15.8947   -5.3779   25.7524 H   0  0  0  0  0  0  0  0  0  0  0  0
  -15.7920   -7.1115   25.5600 H   0  0  0  0  0  0  0  0  0  0  0  0
  -16.1357   -5.1158   23.2626 H   0  0  0  0  0  0  0  0  0  0  0  0
  -16.0346   -6.8477   23.0685 H   0  0  0  0  0  0  0  0  0  0  0  0
  -13.7733   -6.9107   23.5779 H   0  0  0  0  0  0  0  0  0  0  0  0
  -13.8647   -5.4348   24.5415 H   0  0  0  0  0  0  0  0  0  0  0  0
  -12.6042   -5.0948   22.4810 H   0  0  0  0  0  0  0  0  0  0  0  0
  -14.0823   -4.1190   22.5518 H   0  0  0  0  0  0  0  0  0  0  0  0
  -13.9413   -4.8748   20.4163 H   0  0  0  0  0  0  0  0  0  0  0  0
  -15.9745  -12.1082   21.0640 H   0  0  0  0  0  0  0  0  0  0  0  0
  -15.5259  -14.4304   21.5829 H   0  0  0  0  0  0  0  0  0  0  0  0
  -14.0365  -15.7302   20.1972 H   0  0  0  0  0  0  0  0  0  0  0  0
  -12.9608  -14.7180   18.2733 H   0  0  0  0  0  0  0  0  0  0  0  0
  -14.3412   -7.5710   22.6369 H   0  0  0  0  0  0  0  0  0  0  0  0
  -14.8788   -6.9575   24.1806 H   0  0  0  0  0  0  0  0  0  0  0  0
  -15.4661   -9.2929   24.0309 H   0  0  0  0  0  0  0  0  0  0  0  0
  -16.2750   -8.9738   22.4649 H   0  0  0  0  0  0  0  0  0  0  0  0
  -16.4573   -8.0762   25.9928 H   0  0  0  0  0  0  0  0  0  0  0  0
  -18.5005   -7.7185   27.2304 H   0  0  0  0  0  0  0  0  0  0  0  0
  -15.6629   -8.3537   21.0152 H   0  0  0  0  0  0  0  0  0  0  0  0
  -15.7709   -8.8974   18.4328 H   0  0  0  0  0  0  0  0  0  0  0  0
  -16.5738   -9.9240   19.6108 H   0  0  0  0  0  0  0  0  0  0  0  0
  -13.7403  -10.0311   17.0457 H   0  0  0  0  0  0  0  0  0  0  0  0
  -17.0610   -6.6233   22.4247 H   0  0  0  0  0  0  0  0  0  0  0  0
  -20.6349   -7.8365   26.0714 H   0  0  0  0  0  0  0  0  0  0  0  0
  -20.6917   -8.2576   23.6897 H   0  0  0  0  0  0  0  0  0  0  0  0
  -18.6394   -8.6676   22.4883 H   0  0  0  0  0  0  0  0  0  0  0  0
  -12.7767  -12.3125   16.8798 H   0  0  0  0  0  0  0  0  0  0  0  0
  -13.8607   -7.7539   18.8616 H   0  0  0  0  0  0  0  0  0  0  0  0
  -15.6697   -6.8959   20.6000 H   0  0  0  0  0  0  0  0  0  0  0  0
  -12.7489  -10.0176   19.9479 H   0  0  0  0  0  0  0  0  0  0  0  0
  -14.7845   -4.0284   22.2796 H   0  0  0  0  0  0  0  0  0  0  0  0
  1  2  1  0
  2  3  1  0
  3  4  1  0
  5  4  1  0
  6  7  4  0
  7  8  4  0
  8  9  4  0
  9 10  4  0
  5 11  1  0
 12 13  1  0
 13 14  1  0
 14 15  4  0
 15 16  4  0
 17 18  1  0
 18 19  1  0
  6 20  4  0
 19 20  1  0
 20 21  4  0
 10 22  4  0
  6 22  4  0
 23 12  1  0
 23 24  1  0
 16 25  4  0
 25 26  4  0
 26 27  4  0
 14 27  4  0
 22 28  4  0
 21 28  4  0
 11 29  1  0
 18 29  1  0
  5 30  1  0
 23 30  1  0
 17 31  2  0
 17 32  1  0
 24 33  2  0
 24 34  1  0
 11 35  2  0
  1 36  1  0
  1 37  1  0
  1 38  1  0
  2 39  1  0
  2 40  1  0
  3 41  1  0
  3 42  1  0
  4 43  1  0
  4 44  1  0
  5 45  1  6
  7 46  1  0
  8 47  1  0
  9 48  1  0
 10 49  1  0
 12 50  1  0
 12 51  1  0
 13 52  1  0
 13 53  1  0
 15 54  1  0
 16 55  1  0
 18 56  1  1
 19 57  1  0
 19 58  1  0
 21 59  1  0
 23 60  1  6
 25 61  1  0
 26 62  1  0
 27 63  1  0
 28 64  1  0
 29 65  1  0
 30 66  1  0
 32 67  1  0
 34 68  1  0
M  CHG  1  28   1
M  END
