7Q27_8KC_A_707
     RDKit          3D

 68 70  0  0  0  0  0  0  0  0999 V2000
   -4.9221   -2.7213   -0.1197 C   0  0  0  0  0  0  0  0  0  0  0  0
   -4.9835   -1.2449    0.2704 C   0  0  0  0  0  0  0  0  0  0  0  0
   -3.6428   -0.7162    0.8025 C   0  0  0  0  0  0  0  0  0  0  0  0
   -2.5697   -0.6148   -0.2966 C   0  0  0  0  0  0  0  0  0  0  0  0
   -1.2912    0.1016    0.1953 C   0  0  1  0  0  0  0  0  0  0  0  0
    3.4979   -4.0383    0.6063 C   0  0  0  0  0  0  0  0  0  0  0  0
    4.3421   -4.0492    1.7181 C   0  0  0  0  0  0  0  0  0  0  0  0
    5.7294   -4.0058    1.4898 C   0  0  0  0  0  0  0  0  0  0  0  0
    6.2369   -3.9572    0.1727 C   0  0  0  0  0  0  0  0  0  0  0  0
    5.3619   -3.9538   -0.9284 C   0  0  0  0  0  0  0  0  0  0  0  0
   -0.6603   -0.6786    1.3237 C   0  0  0  0  0  0  0  0  0  0  0  0
    0.4505    2.2050   -2.2875 C   0  0  0  0  0  0  0  0  0  0  0  0
    0.8229    3.2033   -1.1743 C   0  0  0  0  0  0  0  0  0  0  0  0
   -0.3157    4.1277   -0.8207 C   0  0  0  0  0  0  0  0  0  0  0  0
   -0.9630    4.0172    0.4219 C   0  0  0  0  0  0  0  0  0  0  0  0
   -2.0343    4.8588    0.7360 C   0  0  0  0  0  0  0  0  0  0  0  0
    1.8882   -1.9024    2.6144 C   0  0  0  0  0  0  0  0  0  0  0  0
    0.7010   -2.6771    2.1082 C   0  0  2  0  0  0  0  0  0  0  0  0
    1.1107   -4.0847    1.6219 C   0  0  0  0  0  0  0  0  0  0  0  0
    2.1194   -4.0679    0.5026 C   0  0  0  0  0  0  0  0  0  0  0  0
    1.8471   -4.0479   -0.8631 C   0  0  0  0  0  0  0  0  0  0  0  0
    3.9919   -3.9958   -0.6726 C   0  0  0  0  0  0  0  0  0  0  0  0
   -0.7141    1.2526   -1.9168 C   0  0  1  0  0  0  0  0  0  0  0  0
   -1.1572    0.5299   -3.1563 C   0  0  0  0  0  0  0  0  0  0  0  0
   -2.4638    5.8191   -0.1837 C   0  0  0  0  0  0  0  0  0  0  0  0
   -1.8204    5.9414   -1.4183 C   0  0  0  0  0  0  0  0  0  0  0  0
   -0.7496    5.1007   -1.7371 C   0  0  0  0  0  0  0  0  0  0  0  0
    2.9960   -4.0020   -1.5746 N   0  0  0  0  0  0  0  0  0  0  0  0
   -0.0018   -1.9270    1.0606 N   0  0  0  0  0  0  0  0  0  0  0  0
   -0.3154    0.2462   -0.9051 N   0  0  0  0  0  0  0  0  0  0  0  0
    2.5576   -1.1737    1.8328 O   0  0  0  0  0  0  0  0  0  0  0  0
    2.2747   -2.0276    3.9451 O   0  0  0  0  0  0  0  0  0  0  0  0
   -2.1766    0.9220   -3.7857 O   0  0  0  0  0  0  0  0  0  0  0  0
   -0.4202   -0.5497   -3.6349 O   0  0  0  0  0  0  0  0  0  0  0  0
   -0.7273   -0.2311    2.5014 O   0  0  0  0  0  0  0  0  0  0  0  0
   -4.5448   -3.3322    0.7273 H   0  0  0  0  0  0  0  0  0  0  0  0
   -5.9409   -3.0751   -0.3842 H   0  0  0  0  0  0  0  0  0  0  0  0
   -4.2663   -2.8681   -1.0026 H   0  0  0  0  0  0  0  0  0  0  0  0
   -5.3141   -0.6418   -0.6031 H   0  0  0  0  0  0  0  0  0  0  0  0
   -5.7492   -1.1263    1.0674 H   0  0  0  0  0  0  0  0  0  0  0  0
   -3.2886   -1.3721    1.6269 H   0  0  0  0  0  0  0  0  0  0  0  0
   -3.8181    0.2960    1.2277 H   0  0  0  0  0  0  0  0  0  0  0  0
   -3.0035   -0.0488   -1.1468 H   0  0  0  0  0  0  0  0  0  0  0  0
   -2.3053   -1.6283   -0.6657 H   0  0  0  0  0  0  0  0  0  0  0  0
   -1.5677    1.1072    0.5840 H   0  0  0  0  0  0  0  0  0  0  0  0
    3.9494   -4.0898    2.7254 H   0  0  0  0  0  0  0  0  0  0  0  0
    6.4123   -4.0109    2.3295 H   0  0  0  0  0  0  0  0  0  0  0  0
    7.3061   -3.9239    0.0091 H   0  0  0  0  0  0  0  0  0  0  0  0
    5.7420   -3.9200   -1.9409 H   0  0  0  0  0  0  0  0  0  0  0  0
    1.3513    1.6045   -2.5431 H   0  0  0  0  0  0  0  0  0  0  0  0
    0.1808    2.7821   -3.1999 H   0  0  0  0  0  0  0  0  0  0  0  0
    1.1825    2.6616   -0.2742 H   0  0  0  0  0  0  0  0  0  0  0  0
    1.6788    3.8187   -1.5269 H   0  0  0  0  0  0  0  0  0  0  0  0
   -0.6385    3.2824    1.1479 H   0  0  0  0  0  0  0  0  0  0  0  0
   -2.5312    4.7672    1.6932 H   0  0  0  0  0  0  0  0  0  0  0  0
   -0.0020   -2.8211    2.9582 H   0  0  0  0  0  0  0  0  0  0  0  0
    0.2028   -4.6279    1.2808 H   0  0  0  0  0  0  0  0  0  0  0  0
    1.5242   -4.6617    2.4772 H   0  0  0  0  0  0  0  0  0  0  0  0
    0.8629   -4.0682   -1.3120 H   0  0  0  0  0  0  0  0  0  0  0  0
   -1.5685    1.8733   -1.5632 H   0  0  0  0  0  0  0  0  0  0  0  0
   -3.2931    6.4698    0.0614 H   0  0  0  0  0  0  0  0  0  0  0  0
   -2.1519    6.6873   -2.1288 H   0  0  0  0  0  0  0  0  0  0  0  0
   -0.2599    5.2055   -2.6972 H   0  0  0  0  0  0  0  0  0  0  0  0
    3.0863   -3.9769   -2.6144 H   0  0  0  0  0  0  0  0  0  0  0  0
   -0.0577   -2.3132    0.0926 H   0  0  0  0  0  0  0  0  0  0  0  0
    0.6198    0.4819   -0.4991 H   0  0  0  0  0  0  0  0  0  0  0  0
    3.0836   -1.5316    4.2994 H   0  0  0  0  0  0  0  0  0  0  0  0
   -0.7023   -1.0392   -4.4756 H   0  0  0  0  0  0  0  0  0  0  0  0
  1  2  1  0
  2  3  1  0
  3  4  1  0
  5  4  1  0
  6  7  2  0
  7  8  1  0
  8  9  2  0
  9 10  1  0
  5 11  1  0
 12 13  1  0
 13 14  1  0
 14 15  2  0
 15 16  1  0
 17 18  1  0
 18 19  1  0
  6 20  1  0
 19 20  1  0
 20 21  2  0
 10 22  2  0
  6 22  1  0
 23 12  1  0
 23 24  1  0
 16 25  2  0
 25 26  1  0
 26 27  2  0
 14 27  1  0
 22 28  1  0
 21 28  1  0
 11 29  1  0
 18 29  1  0
  5 30  1  0
 23 30  1  0
 17 31  2  0
 17 32  1  0
 24 33  2  0
 24 34  1  0
 11 35  2  0
  1 36  1  0
  1 37  1  0
  1 38  1  0
  2 39  1  0
  2 40  1  0
  3 41  1  0
  3 42  1  0
  4 43  1  0
  4 44  1  0
  5 45  1  1
  7 46  1  0
  8 47  1  0
  9 48  1  0
 10 49  1  0
 12 50  1  0
 12 51  1  0
 13 52  1  0
 13 53  1  0
 15 54  1  0
 16 55  1  0
 18 56  1  1
 19 57  1  0
 19 58  1  0
 21 59  1  0
 23 60  1  1
 25 61  1  0
 26 62  1  0
 27 63  1  0
 28 64  1  0
 29 65  1  0
 30 66  1  0
 32 67  1  0
 34 68  1  0
M  END
