7XRL_FWK_A_605
     RDKit          3D

 34 36  0  0  0  0  0  0  0  0999 V2000
   -5.1121   -0.3779   -5.6456 C   0  0  0  0  0  0  0  0  0  0  0  0
   -5.0263    1.0885   -6.1158 C   0  0  2  0  0  0  0  0  0  0  0  0
   -5.3269    1.1726   -7.4949 O   0  0  0  0  0  0  0  0  0  0  0  0
   -3.6521    1.7283   -5.8499 C   0  0  2  0  0  0  0  0  0  0  0  0
   -3.7821    2.9491   -5.1559 O   0  0  0  0  0  0  0  0  0  0  0  0
   -3.0887    1.9204   -7.2417 C   0  0  2  0  0  0  0  0  0  0  0  0
   -2.3370    3.1009   -7.3584 O   0  0  0  0  0  0  0  0  0  0  0  0
   -4.3421    1.9805   -8.1014 C   0  0  1  0  0  0  0  0  0  0  0  0
   -4.0623    1.5306   -9.4710 N   0  0  0  0  0  4  0  0  0  0  0  0
   -3.2837    0.4775   -9.8351 C   0  0  0  0  0  0  0  0  0  0  0  0
   -3.1763    0.3201  -11.1830 N   0  0  0  0  0  0  0  0  0  0  0  0
   -3.9222    1.3328  -11.6603 C   0  0  0  0  0  0  0  0  0  0  0  0
   -4.4458    2.0575  -10.6446 C   0  0  0  0  0  0  0  0  0  0  0  0
   -5.2154    3.1529  -10.8559 N   0  0  0  0  0  0  0  0  0  0  0  0
   -5.4740    3.5193  -12.1471 C   0  0  0  0  0  0  0  0  0  0  0  0
   -4.9581    2.7962  -13.1921 N   0  0  0  0  0  0  0  0  0  0  0  0
   -4.1757    1.6967  -12.9780 C   0  0  0  0  0  0  0  0  0  0  0  0
   -3.6415    0.9604  -14.0782 N   0  0  0  0  0  0  0  0  0  0  0  0
   -4.5048   -0.6191   -4.2611 C   0  0  0  0  0  0  0  0  0  0  0  0
   -6.1750   -0.7031   -5.6384 H   0  0  0  0  0  0  0  0  0  0  0  0
   -4.5746   -1.0171   -6.3792 H   0  0  0  0  0  0  0  0  0  0  0  0
   -5.8102    1.6497   -5.5598 H   0  0  0  0  0  0  0  0  0  0  0  0
   -2.9835    1.0683   -5.2559 H   0  0  0  0  0  0  0  0  0  0  0  0
   -4.3709    3.5482   -5.6864 H   0  0  0  0  0  0  0  0  0  0  0  0
   -2.4758    1.0334   -7.5295 H   0  0  0  0  0  0  0  0  0  0  0  0
   -1.4720    2.9265   -6.9044 H   0  0  0  0  0  0  0  0  0  0  0  0
   -4.7264    3.0253   -8.1424 H   0  0  0  0  0  0  0  0  0  0  0  0
   -2.7885   -0.1731   -9.1262 H   0  0  0  0  0  0  0  0  0  0  0  0
   -6.0880    4.3865  -12.3460 H   0  0  0  0  0  0  0  0  0  0  0  0
   -3.0423    0.1196  -13.9223 H   0  0  0  0  0  0  0  0  0  0  0  0
   -3.8472    1.2577  -15.0576 H   0  0  0  0  0  0  0  0  0  0  0  0
   -5.0673   -0.0710   -3.4781 H   0  0  0  0  0  0  0  0  0  0  0  0
   -3.4428   -0.3029   -4.2368 H   0  0  0  0  0  0  0  0  0  0  0  0
   -4.5510   -1.7030   -4.0239 H   0  0  0  0  0  0  0  0  0  0  0  0
  2  1  1  0
  2  3  1  0
  2  4  1  0
  4  5  1  0
  4  6  1  0
  6  7  1  0
  6  8  1  0
  3  8  1  0
  8  9  1  0
  9 10  4  0
 10 11  4  0
 11 12  4  0
  9 13  4  0
 12 13  4  0
 13 14  4  0
 14 15  4  0
 15 16  4  0
 12 17  4  0
 16 17  4  0
 17 18  1  0
  1 19  1  0
  1 20  1  0
  1 21  1  0
  2 22  1  6
  4 23  1  6
  5 24  1  0
  6 25  1  1
  7 26  1  0
  8 27  1  1
 10 28  1  0
 15 29  1  0
 18 30  1  0
 18 31  1  0
 19 32  1  0
 19 33  1  0
 19 34  1  0
M  CHG  1   9   1
M  END
