7SUC_COM_a_604
     RDKit          3D

  7  6  0  0  0  0  0  0  0  0999 V2000
   23.9747   36.5558  -24.5595 C   0  0  0  0  0  0  0  0  0  0  0  0
   23.4284   37.8659  -25.1025 C   0  0  0  0  0  0  0  0  0  0  0  0
   22.6272   35.3291  -24.6409 S   0  0  0  0  0  0  0  0  0  0  0  0
   24.6737   39.1211  -24.9505 S   0  0  1  0  0  6  0  0  0  0  0  0
   24.1635   40.4192  -25.5017 O   0  0  0  0  0  0  0  0  0  0  0  0
   25.0356   39.2727  -23.5080 O   0  0  0  0  0  0  0  0  0  0  0  0
   26.0463   38.7056  -25.8510 O   0  0  0  0  0  0  0  0  0  0  0  0
  2  1  1  6
  1  3  1  1
  2  4  1  0
  4  5  2  0
  4  6  2  0
  4  7  1  6
M  END
$$$$
