1U1C_BAU_F_5051
     RDKit          3D

 20 21  0  0  0  0  0  0  0  0999 V2000
    1.6760  119.7543   72.7361 O   0  0  0  0  0  0  0  0  0  0  0  0
    0.4498  120.1306   72.1415 C   0  0  0  0  0  0  0  0  0  0  0  0
    0.6652  121.4959   71.5718 C   0  0  0  0  0  0  0  0  0  0  0  0
   -0.4509  122.0703   70.9948 O   0  0  0  0  0  0  0  0  0  0  0  0
   -0.2019  123.2748   70.3855 C   0  0  0  0  0  0  0  0  0  0  0  0
   -1.3864  123.8848   69.8209 N   0  0  0  0  0  0  0  0  0  0  0  0
   -1.2093  125.1059   69.2374 C   0  0  0  0  0  0  0  0  0  0  0  0
   -0.0834  125.6400   69.2072 O   0  0  0  0  0  0  0  0  0  0  0  0
   -2.2333  125.7622   68.6837 N   0  0  0  0  0  0  0  0  0  0  0  0
   -3.4536  125.1833   68.7164 C   0  0  0  0  0  0  0  0  0  0  0  0
   -4.3925  125.8285   68.1866 O   0  0  0  0  0  0  0  0  0  0  0  0
   -2.6035  123.3048   69.8549 C   0  0  0  0  0  0  0  0  0  0  0  0
   -3.6764  123.9599   69.2912 C   0  0  0  0  0  0  0  0  0  0  0  0
   -4.9984  123.3272   69.3296 C   0  0  0  0  0  0  0  0  0  0  0  0
   -4.9184  121.8578   69.2025 C   0  0  0  0  0  0  0  0  0  0  0  0
   -4.0262  121.2284   68.3348 C   0  0  0  0  0  0  0  0  0  0  0  0
   -3.9510  119.8602   68.2158 C   0  0  0  0  0  0  0  0  0  0  0  0
   -4.7672  119.0530   68.9612 C   0  0  0  0  0  0  0  0  0  0  0  0
   -5.6655  119.6482   69.8334 C   0  0  0  0  0  0  0  0  0  0  0  0
   -5.7401  121.0119   69.9518 C   0  0  0  0  0  0  0  0  0  0  0  0
  1  2  1  0
  2  3  1  0
  3  4  1  0
  4  5  1  0
  5  6  1  0
  6  7  1  0
  7  8  2  0
  7  9  1  0
  9 10  1  0
 10 11  2  0
  6 12  1  0
 10 13  1  0
 12 13  2  0
 13 14  1  0
 14 15  1  0
 15 16  2  0
 16 17  1  0
 17 18  2  0
 18 19  1  0
 15 20  1  0
 19 20  2  0
M  END
$$$$
