1U1C_BAU_F_5051
     RDKit          3D

 20 21  0  0  0  0  0  0  0  0999 V2000
   -6.6411  120.4689   69.7087 O   0  0  0  0  0  0  0  0  0  0  0  0
   -7.1630  119.8044   68.5752 C   0  0  0  0  0  0  0  0  0  0  0  0
   -5.9851  119.2619   67.8316 C   0  0  0  0  0  0  0  0  0  0  0  0
   -6.1642  119.1340   66.4677 O   0  0  0  0  0  0  0  0  0  0  0  0
   -5.1391  118.4778   65.8333 C   0  0  0  0  0  0  0  0  0  0  0  0
   -5.3049  118.4124   64.3973 N   0  0  0  0  0  0  0  0  0  0  0  0
   -4.2682  117.8624   63.7005 C   0  0  0  0  0  0  0  0  0  0  0  0
   -3.2515  117.4494   64.2918 O   0  0  0  0  0  0  0  0  0  0  0  0
   -4.3122  117.7510   62.3695 N   0  0  0  0  0  0  0  0  0  0  0  0
   -5.4141  118.1987   61.7287 C   0  0  0  0  0  0  0  0  0  0  0  0
   -5.4209  118.0779   60.4781 O   0  0  0  0  0  0  0  0  0  0  0  0
   -6.4061  118.8600   63.7599 C   0  0  0  0  0  0  0  0  0  0  0  0
   -6.4772  118.7571   62.3880 C   0  0  0  0  0  0  0  0  0  0  0  0
   -7.6752  119.2445   61.6976 C   0  0  0  0  0  0  0  0  0  0  0  0
   -8.4992  118.1416   61.1624 C   0  0  0  0  0  0  0  0  0  0  0  0
   -8.0343  116.8290   61.0841 C   0  0  0  0  0  0  0  0  0  0  0  0
   -8.8008  115.8014   60.5858 C   0  0  0  0  0  0  0  0  0  0  0  0
  -10.0733  116.0378   60.1405 C   0  0  0  0  0  0  0  0  0  0  0  0
  -10.5648  117.3325   60.2049 C   0  0  0  0  0  0  0  0  0  0  0  0
   -9.8006  118.3564   60.7015 C   0  0  0  0  0  0  0  0  0  0  0  0
  1  2  1  0
  2  3  1  0
  3  4  1  0
  4  5  1  0
  5  6  1  0
  6  7  1  0
  7  8  2  0
  7  9  1  0
  9 10  1  0
 10 11  2  0
  6 12  1  0
 10 13  1  0
 12 13  2  0
 13 14  1  0
 14 15  1  0
 15 16  2  0
 16 17  1  0
 17 18  2  0
 18 19  1  0
 15 20  1  0
 19 20  2  0
M  END
$$$$
