1U1C_BAU_F_5051
     RDKit          3D

 20 21  0  0  0  0  0  0  0  0999 V2000
   -0.8364  123.1918   71.9909 O   0  0  0  0  0  0  0  0  0  0  0  0
    0.5560  123.4368   71.9830 C   0  0  0  0  0  0  0  0  0  0  0  0
    1.2049  122.1650   72.4257 C   0  0  0  0  0  0  0  0  0  0  0  0
    2.5853  122.1629   72.3673 O   0  0  0  0  0  0  0  0  0  0  0  0
    3.1596  121.0237   72.8735 C   0  0  0  0  0  0  0  0  0  0  0  0
    4.6058  121.0457   72.8307 N   0  0  0  0  0  0  0  0  0  0  0  0
    5.2314  119.8794   73.1643 C   0  0  0  0  0  0  0  0  0  0  0  0
    4.5711  118.8711   73.4828 O   0  0  0  0  0  0  0  0  0  0  0  0
    6.5643  119.7842   73.1594 N   0  0  0  0  0  0  0  0  0  0  0  0
    7.2798  120.8769   72.8143 C   0  0  0  0  0  0  0  0  0  0  0  0
    8.5300  120.7512   72.8206 O   0  0  0  0  0  0  0  0  0  0  0  0
    5.3179  122.1380   72.4857 C   0  0  0  0  0  0  0  0  0  0  0  0
    6.6936  122.0670   72.4725 C   0  0  0  0  0  0  0  0  0  0  0  0
    7.4653  123.2558   72.0972 C   0  0  0  0  0  0  0  0  0  0  0  0
    6.6014  124.4294   71.8561 C   0  0  0  0  0  0  0  0  0  0  0  0
    6.6875  125.5926   72.6208 C   0  0  0  0  0  0  0  0  0  0  0  0
    5.8835  126.6859   72.3969 C   0  0  0  0  0  0  0  0  0  0  0  0
    4.9519  126.6686   71.3944 C   0  0  0  0  0  0  0  0  0  0  0  0
    4.8416  125.5266   70.6161 C   0  0  0  0  0  0  0  0  0  0  0  0
    5.6430  124.4371   70.8395 C   0  0  0  0  0  0  0  0  0  0  0  0
  1  2  1  0
  2  3  1  0
  3  4  1  0
  4  5  1  0
  5  6  1  0
  6  7  1  0
  7  8  2  0
  7  9  1  0
  9 10  1  0
 10 11  2  0
  6 12  1  0
 10 13  1  0
 12 13  2  0
 13 14  1  0
 14 15  1  0
 15 16  2  0
 16 17  1  0
 17 18  2  0
 18 19  1  0
 15 20  1  0
 19 20  2  0
M  END
$$$$
