1U1C_BAU_F_5051
     RDKit          3D

 20 21  0  0  0  0  0  0  0  0999 V2000
    1.4075  130.2463   73.6526 O   0  0  0  0  0  0  0  0  0  0  0  0
    0.4117  129.2622   73.8491 C   0  0  0  0  0  0  0  0  0  0  0  0
    0.3989  128.9700   75.3152 C   0  0  0  0  0  0  0  0  0  0  0  0
   -0.5852  128.0921   75.7268 O   0  0  0  0  0  0  0  0  0  0  0  0
   -0.5973  127.8686   77.0810 C   0  0  0  0  0  0  0  0  0  0  0  0
   -1.6433  126.9611   77.5008 N   0  0  0  0  0  0  0  0  0  0  0  0
   -1.8085  126.8222   78.8485 C   0  0  0  0  0  0  0  0  0  0  0  0
   -1.0872  127.4517   79.6468 O   0  0  0  0  0  0  0  0  0  0  0  0
   -2.7445  126.0106   79.3498 N   0  0  0  0  0  0  0  0  0  0  0  0
   -3.5262  125.3284   78.4846 C   0  0  0  0  0  0  0  0  0  0  0  0
   -4.3951  124.5752   78.9911 O   0  0  0  0  0  0  0  0  0  0  0  0
   -2.4224  126.2812   76.6349 C   0  0  0  0  0  0  0  0  0  0  0  0
   -3.3950  125.4377   77.1254 C   0  0  0  0  0  0  0  0  0  0  0  0
   -4.2406  124.6998   76.1821 C   0  0  0  0  0  0  0  0  0  0  0  0
   -5.3370  125.5316   75.6457 C   0  0  0  0  0  0  0  0  0  0  0  0
   -5.9488  125.2657   74.4208 C   0  0  0  0  0  0  0  0  0  0  0  0
   -6.9697  126.0397   73.9206 C   0  0  0  0  0  0  0  0  0  0  0  0
   -7.4295  127.1204   74.6234 C   0  0  0  0  0  0  0  0  0  0  0  0
   -6.8419  127.4114   75.8449 C   0  0  0  0  0  0  0  0  0  0  0  0
   -5.8244  126.6398   76.3432 C   0  0  0  0  0  0  0  0  0  0  0  0
  1  2  1  0
  2  3  1  0
  3  4  1  0
  4  5  1  0
  5  6  1  0
  6  7  1  0
  7  8  2  0
  7  9  1  0
  9 10  1  0
 10 11  2  0
  6 12  1  0
 10 13  1  0
 12 13  2  0
 13 14  1  0
 14 15  1  0
 15 16  2  0
 16 17  1  0
 17 18  2  0
 18 19  1  0
 15 20  1  0
 19 20  2  0
M  END
$$$$
