
     RDKit          3D

 55 60  0  0  0  0  0  0  0  0999 V2000
  -19.4817   -3.2458    0.6365 C   0  0  0  0  0  0  0  0  0  0  0  0
  -18.6006   -4.3619    1.2133 C   0  0  0  0  0  0  0  0  0  0  0  0
  -17.5400   -4.8611    0.2332 C   0  0  0  0  0  0  0  0  0  0  0  0
  -17.1756   -3.8077   -0.8038 C   0  0  0  0  0  0  0  0  0  0  0  0
  -18.3848   -3.3612   -1.6363 C   0  0  0  0  0  0  0  0  0  0  0  0
  -19.7209   -3.4544   -0.8674 C   0  0  0  0  0  0  0  0  0  0  0  0
  -20.8149   -2.5591   -1.5315 C   0  0  2  0  0  0  0  0  0  0  0  0
  -20.3656   -1.1074   -1.8139 C   0  0  0  0  0  0  0  0  0  0  0  0
  -19.5598   -0.5237   -1.0814 O   0  0  0  0  0  0  0  0  0  0  0  0
  -20.8907   -0.4710   -2.9371 N   0  0  0  0  0  0  0  0  0  0  0  0
  -21.9778   -1.0055   -3.7576 C   0  0  0  0  0  0  0  0  0  0  0  0
  -22.5861    0.0117   -4.7152 C   0  0  0  0  0  0  0  0  0  0  0  0
  -21.5283    0.6661   -5.5816 C   0  0  0  0  0  0  0  0  0  0  0  0
  -20.2280    0.9726   -4.8352 C   0  0  0  0  0  0  0  0  0  0  0  0
  -20.3295    0.8448   -3.3112 C   0  0  1  0  0  0  0  0  0  0  0  0
  -21.0322    2.0684   -2.6933 C   0  0  0  0  0  0  0  0  0  0  0  0
  -20.7012    3.2204   -2.9490 O   0  0  0  0  0  0  0  0  0  0  0  0
  -22.0298    1.7170   -1.8336 O   0  0  0  0  0  0  0  0  0  0  0  0
  -22.8240    2.7866   -1.2853 C   0  0  2  0  0  0  0  0  0  0  0  0
  -22.8639    2.6605    0.2449 C   0  0  0  0  0  0  0  0  0  0  0  0
  -23.7807    3.6910    0.9115 C   0  0  0  0  0  0  0  0  0  0  0  0
  -23.2669    5.1099    0.8632 C   0  0  0  0  0  0  0  0  0  0  0  0
  -22.0224    5.4219    1.4234 C   0  0  0  0  0  0  0  0  0  0  0  0
  -24.0158    6.1350    0.2763 C   0  0  0  0  0  0  0  0  0  0  0  0
  -23.5408    7.4490    0.2529 C   0  0  0  0  0  0  0  0  0  0  0  0
  -22.2998    7.7612    0.8183 C   0  0  0  0  0  0  0  0  0  0  0  0
  -21.7632    9.0222    0.8492 O   0  0  0  0  0  0  0  0  0  0  0  0
  -21.6988    9.7312   -0.3828 C   0  0  0  0  0  0  0  0  0  0  0  0
  -21.5290    6.7378    1.4050 C   0  0  0  0  0  0  0  0  0  0  0  0
  -20.3265    7.1123    1.9590 O   0  0  0  0  0  0  0  0  0  0  0  0
  -20.3182    7.2074    3.3845 C   0  0  0  0  0  0  0  0  0  0  0  0
  -24.2114    2.6587   -1.8954 C   0  0  0  0  0  0  0  0  0  0  0  0
  -25.0158    1.5295   -1.6714 C   0  0  0  0  0  0  0  0  0  0  0  0
  -24.7009    3.6770   -2.7289 C   0  0  0  0  0  0  0  0  0  0  0  0
  -25.9638    3.5746   -3.3204 C   0  0  0  0  0  0  0  0  0  0  0  0
  -26.7530    2.4545   -3.0833 C   0  0  0  0  0  0  0  0  0  0  0  0
  -26.2854    1.4513   -2.2410 C   0  0  0  0  0  0  0  0  0  0  0  0
  -27.0682    0.3452   -2.0252 O   0  0  0  0  0  0  0  0  0  0  0  0
  -27.8843    0.5002   -0.8419 C   0  0  0  0  0  0  0  0  0  0  0  0
  -27.4994   -0.5366    0.2264 C   0  0  2  0  0  0  0  0  0  0  0  0
  -26.3871   -0.0089    0.9555 O   0  0  0  0  0  0  0  0  0  0  0  0
  -27.2343   -1.9337   -0.3807 C   0  0  2  0  0  0  0  0  0  0  0  0
  -28.3808   -2.3521   -1.1387 O   0  0  0  0  0  0  0  0  0  0  0  0
  -26.9540   -3.0112    0.6861 C   0  0  0  0  0  0  0  0  0  0  0  0
  -25.7171   -2.8454    1.3914 O   0  0  0  0  0  0  0  0  0  0  0  0
  -24.5525   -2.8684    0.6546 C   0  0  0  0  0  0  0  0  0  0  0  0
  -23.6025   -1.8923    1.0111 C   0  0  0  0  0  0  0  0  0  0  0  0
  -23.9445   -1.0560    2.0501 O   0  0  0  0  0  0  0  0  0  0  0  0
  -22.8558   -0.3301    2.6295 C   0  0  0  0  0  0  0  0  0  0  0  0
  -22.4174   -1.7541    0.2870 C   0  0  0  0  0  0  0  0  0  0  0  0
  -22.1248   -2.6404   -0.7521 C   0  0  0  0  0  0  0  0  0  0  0  0
  -23.0393   -3.6714   -1.0491 C   0  0  0  0  0  0  0  0  0  0  0  0
  -24.2511   -3.7983   -0.3544 C   0  0  0  0  0  0  0  0  0  0  0  0
  -25.1386   -4.8132   -0.5666 O   0  0  0  0  0  0  0  0  0  0  0  0
  -25.7535   -4.9169   -1.8519 C   0  0  0  0  0  0  0  0  0  0  0  0
  1  2  1  0
  2  3  1  0
  3  4  1  0
  4  5  1  0
  1  6  1  0
  5  6  1  0
  7  6  1  1
  7  8  1  0
  8  9  2  0
  8 10  1  0
 10 11  1  0
 11 12  1  0
 12 13  1  0
 13 14  1  0
 15 14  1  6
 10 15  1  0
 15 16  1  0
 16 17  2  0
 16 18  1  0
 18 19  1  0
 19 20  1  1
 20 21  1  0
 21 22  1  0
 22 23  4  0
 22 24  4  0
 24 25  4  0
 25 26  4  0
 26 27  1  0
 27 28  1  0
 26 29  4  0
 23 29  4  0
 29 30  1  0
 30 31  1  0
 19 32  1  0
 32 33  4  0
 32 34  4  0
 34 35  4  0
 35 36  4  0
 36 37  4  0
 33 37  4  0
 37 38  1  0
 38 39  1  0
 39 40  1  0
 40 41  1  6
 40 42  1  0
 42 43  1  1
 42 44  1  0
 44 45  1  0
 45 46  1  0
 46 47  4  0
 47 48  1  0
 48 49  1  0
 47 50  4  0
  7 51  1  0
 50 51  4  0
 51 52  4  0
 52 53  4  0
 46 53  4  0
 53 54  1  0
 54 55  1  0
M  END
