6ZT2_QPK_A_303
     RDKit          3D

 10 10  0  0  0  0  0  0  0  0999 V2000
  -10.3699   31.0878  -14.3989 C   0  0  0  0  0  0  0  0  0  0  0  0
   -9.2727   31.3979  -15.1856 C   0  0  0  0  0  0  0  0  0  0  0  0
   -7.9993   31.1365  -14.7220 C   0  0  0  0  0  0  0  0  0  0  0  0
   -7.7797   30.5853  -13.4652 C   0  0  0  0  0  0  0  0  0  0  0  0
   -8.9068   30.3115  -12.7001 C   0  0  0  0  0  0  0  0  0  0  0  0
  -10.1887   30.5376  -13.1435 C   0  0  0  0  0  0  0  0  0  0  0  0
   -6.5246   30.3579  -13.0104 O   0  0  0  0  0  0  0  0  0  0  0  0
   -8.7101   29.8677  -11.4401 F   0  0  0  0  0  0  0  0  0  0  0  0
   -6.9417   31.4219  -15.5048 F   0  0  0  0  0  0  0  0  0  0  0  0
   -9.4807   32.1633  -16.7265 Cl  0  0  0  0  0  0  0  0  0  0  0  0
  1  2  2  0
  2  3  1  0
  3  4  2  0
  4  5  1  0
  1  6  1  0
  5  6  2  0
  4  7  1  0
  5  8  1  0
  3  9  1  0
  2 10  1  0
M  END
