7KC5_BJZ_A_402
     RDKit          3D

 37 41  0  0  0  0  0  0  0  0999 V2000
   -4.1269  -17.1484  -31.3787 C   0  0  0  0  0  0  0  0  0  0  0  0
   -3.0549  -17.3103  -32.2420 C   0  0  0  0  0  0  0  0  0  0  0  0
   -2.6632  -18.5766  -32.6131 C   0  0  0  0  0  0  0  0  0  0  0  0
   -3.3438  -19.6729  -32.1204 C   0  0  0  0  0  0  0  0  0  0  0  0
   -4.4183  -19.5560  -31.2572 C   0  0  0  0  0  0  0  0  0  0  0  0
   -4.7907  -18.2741  -30.9008 C   0  0  0  0  0  0  0  0  0  0  0  0
   -5.2681  -20.9766  -30.6442 Cl  0  0  0  0  0  0  0  0  0  0  0  0
   -1.5744  -18.8343  -33.4941 N   0  0  0  0  0  0  0  0  0  0  0  0
   -1.4953  -18.3481  -34.8429 C   0  0  0  0  0  0  0  0  0  0  0  0
   -0.2464  -18.8276  -35.3857 N   0  0  0  0  0  0  0  0  0  0  0  0
    0.3313  -19.7832  -34.5081 C   0  0  2  0  0  0  0  0  0  0  0  0
   -0.3903  -19.5889  -33.2456 C   0  0  0  0  0  0  0  0  0  0  0  0
   -0.0956  -19.9863  -32.0679 O   0  0  0  0  0  0  0  0  0  0  0  0
    1.8054  -19.5091  -34.1812 C   0  0  0  0  0  0  0  0  0  0  0  0
    2.1621  -20.7471  -33.5002 N   0  0  0  0  0  0  0  0  0  0  0  0
    1.3027  -21.8325  -33.9743 C   0  0  0  0  0  0  0  0  0  0  0  0
    0.4288  -21.1839  -34.9984 C   0  0  1  0  0  0  0  0  0  0  0  0
   -0.8246  -21.8647  -35.2973 C   0  0  0  0  0  0  0  0  0  0  0  0
   -1.3612  -22.9038  -34.5568 C   0  0  0  0  0  0  0  0  0  0  0  0
   -2.5510  -23.5200  -34.8753 C   0  0  0  0  0  0  0  0  0  0  0  0
   -3.2699  -23.1224  -35.9620 C   0  0  0  0  0  0  0  0  0  0  0  0
   -2.7736  -22.0903  -36.7292 C   0  0  0  0  0  0  0  0  0  0  0  0
   -1.5808  -21.4730  -36.4095 C   0  0  0  0  0  0  0  0  0  0  0  0
   -4.5088  -23.7676  -36.2895 C   0  0  0  0  0  0  0  0  0  0  0  0
   -5.5190  -24.2738  -36.5539 N   0  0  0  0  0  0  0  0  0  0  0  0
    3.1965  -20.8389  -32.5286 C   0  0  0  0  0  0  0  0  0  0  0  0
    3.9240  -19.7462  -32.2648 N   0  0  0  0  0  0  0  0  0  0  0  0
    4.9000  -19.8548  -31.3400 C   0  0  0  0  0  0  0  0  0  0  0  0
    5.1756  -21.0194  -30.6678 C   0  0  0  0  0  0  0  0  0  0  0  0
    4.4271  -22.1516  -30.9364 C   0  0  0  0  0  0  0  0  0  0  0  0
    3.4153  -22.0437  -31.8933 C   0  0  0  0  0  0  0  0  0  0  0  0
    6.2334  -21.1207  -29.6715 C   0  0  0  0  0  0  0  0  0  0  0  0
    6.9564  -20.1187  -29.3559 O   0  0  0  0  0  0  0  0  0  0  0  0
    6.4349  -22.3677  -29.0630 O   0  0  0  0  0  0  0  0  0  0  0  0
    0.2644  -18.3450  -36.6517 C   0  0  0  0  0  0  0  0  0  0  0  0
   -2.3472  -17.6347  -35.4557 O   0  0  0  0  0  0  0  0  0  0  0  0
   -4.6087  -15.5251  -30.9192 Cl  0  0  0  0  0  0  0  0  0  0  0  0
  1  2  2  0
  2  3  1  0
  3  4  2  0
  4  5  1  0
  1  6  1  0
  5  6  2  0
  5  7  1  0
  3  8  1  0
  8  9  1  0
  9 10  1  0
 11 10  1  6
  8 12  1  0
 11 12  1  0
 12 13  2  0
 11 14  1  0
 14 15  1  1
 16 15  1  1
 11 17  1  0
 16 17  1  0
 17 18  1  1
 18 19  2  0
 19 20  1  0
 20 21  2  0
 21 22  1  0
 18 23  1  0
 22 23  2  0
 21 24  1  0
 24 25  3  0
 15 26  1  0
 26 27  2  0
 27 28  1  0
 28 29  2  0
 29 30  1  0
 26 31  1  0
 30 31  2  0
 29 32  1  0
 32 33  2  0
 32 34  1  0
 35 10  1  6
  9 36  2  0
  1 37  1  0
M  END
$$$$
