7T0U_E3I_A_204
     RDKit          3D

 48 53  0  0  0  0  0  0  0  0999 V2000
  -41.3136   -1.6388    1.1454 C   0  0  0  0  0  0  0  0  0  0  0  0
  -41.7073    0.4690    0.0954 C   0  0  0  0  0  0  0  0  0  0  0  0
  -41.3218    1.7389   -0.1907 C   0  0  0  0  0  0  0  0  0  0  0  0
  -41.9157    2.7405   -0.9206 C   0  0  0  0  0  0  0  0  0  0  0  0
  -43.1889    2.7777   -1.6256 C   0  0  0  0  0  0  0  0  0  0  0  0
  -43.4048    3.4758   -2.7899 C   0  0  0  0  0  0  0  0  0  0  0  0
  -44.6885    3.4201   -3.3357 C   0  0  0  0  0  0  0  0  0  0  0  0
  -45.7061    2.7027   -2.7480 C   0  0  0  0  0  0  0  0  0  0  0  0
  -45.4867    2.0028   -1.5800 C   0  0  0  0  0  0  0  0  0  0  0  0
  -46.5434    1.2333   -0.9344 C   0  0  0  0  0  0  0  0  0  0  0  0
  -44.2250    2.0466   -1.0272 C   0  0  0  0  0  0  0  0  0  0  0  0
  -41.0569    3.8176   -0.8723 C   0  0  0  0  0  0  0  0  0  0  0  0
  -38.8895    4.4321    0.0894 C   0  0  0  0  0  0  0  0  0  0  0  0
  -37.9693    4.5188   -1.0629 C   0  0  0  0  0  0  0  0  0  0  0  0
  -35.9128    5.5975   -2.0015 C   0  0  0  0  0  0  0  0  0  0  0  0
  -36.2218    5.4348   -3.3351 C   0  0  0  0  0  0  0  0  0  0  0  0
  -35.2701    5.6401   -4.3197 C   0  0  0  0  0  0  0  0  0  0  0  0
  -35.2919    4.2027   -6.3910 C   0  0  1  0  0  0  0  0  0  0  0  0
  -35.7311    3.0564   -5.5439 C   0  0  0  0  0  0  0  0  0  0  0  0
  -35.8765    4.2047   -7.7625 C   0  0  0  0  0  0  0  0  0  0  0  0
  -38.2684    3.8009   -7.7197 C   0  0  1  0  0  0  0  0  0  0  0  0
  -39.6077    4.0940   -8.3003 C   0  0  0  0  0  0  0  0  0  0  0  0
  -38.2929    2.7690   -8.8412 C   0  0  0  0  0  0  0  0  0  0  0  0
  -37.3794    6.0261   -7.3172 C   0  0  0  0  0  0  0  0  0  0  0  0
  -36.1856    6.5016   -6.5138 C   0  0  0  0  0  0  0  0  0  0  0  0
  -33.7206    6.1663   -2.6165 C   0  0  0  0  0  0  0  0  0  0  0  0
  -34.6339    5.9717   -1.6265 C   0  0  0  0  0  0  0  0  0  0  0  0
  -40.0997    2.2158    0.2997 C   0  0  0  0  0  0  0  0  0  0  0  0
  -39.7062    0.1615    1.3279 C   0  0  0  0  0  0  0  0  0  0  0  0
  -38.8657   -0.7565    2.1537 C   0  0  2  0  0  0  0  0  0  0  0  0
  -39.5527   -1.2277    3.2631 F   0  0  0  0  0  0  0  0  0  0  0  0
  -37.7435   -0.1145    2.6336 F   0  0  0  0  0  0  0  0  0  0  0  0
  -38.4364   -1.8556    1.4342 F   0  0  0  0  0  0  0  0  0  0  0  0
  -40.8887   -0.2903    0.8495 N   0  0  0  0  0  0  0  0  0  0  0  0
  -47.8548    1.2384   -1.5165 N   0  0  0  0  0  0  0  0  0  0  0  0
  -39.9620    3.4827   -0.1287 N   0  0  0  0  0  0  0  0  0  0  0  0
  -36.8656    5.4053   -0.9599 N   0  0  0  0  0  0  0  0  0  0  0  0
  -35.5743    5.4550   -5.7180 N   0  0  0  0  0  0  0  0  0  0  0  0
  -37.2125    4.7274   -7.8627 N   0  0  0  0  0  0  0  0  0  0  0  0
  -34.0481    6.0015   -3.9031 N   0  0  0  0  0  0  0  0  0  0  0  0
  -39.2990    1.4351    1.0520 N   0  0  0  0  0  0  0  0  0  0  0  0
  -42.7866    0.0148   -0.3271 O   0  0  0  0  0  0  0  0  0  0  0  0
  -46.9906    2.6665   -3.3233 O   0  0  0  0  0  0  0  0  0  0  0  0
  -46.3834    0.5669    0.0957 O   0  0  0  0  0  0  0  0  0  0  0  0
  -39.3707    3.4220   -9.4772 O   0  0  0  0  0  0  0  0  0  0  0  0
  -38.1371    3.8322   -2.1249 O   0  0  0  0  0  0  0  0  0  0  0  0
  -45.0463    4.2779   -4.8151 Cl  0  0  0  0  0  0  0  0  0  0  0  0
  -34.2103    6.1863    0.0676 Cl  0  0  0  0  0  0  0  0  0  0  0  0
  2  3  1  0
  3  4  1  0
  4  5  1  0
  5  6  2  0
  6  7  1  0
  7  8  2  0
  8  9  1  0
  9 10  1  0
  9 11  2  0
  5 11  1  0
  4 12  2  0
 13 14  1  0
 15 16  2  0
 16 17  1  0
 18 19  1  1
 18 20  1  0
 21 22  1  0
 21 23  1  0
 24 25  1  0
 15 27  1  0
 26 27  2  0
  3 28  2  0
 29 30  1  0
 30 31  1  1
 30 32  1  0
 30 33  1  0
  2 34  1  0
  1 34  1  0
 29 34  1  0
 10 35  1  0
 12 36  1  0
 13 36  1  0
 28 36  1  0
 14 37  1  0
 15 37  1  0
 17 38  1  0
 18 38  1  0
 25 38  1  0
 20 39  1  0
 24 39  1  0
 21 39  1  6
 26 40  1  0
 17 40  2  0
 28 41  1  0
 29 41  2  0
  2 42  2  0
  8 43  1  0
 10 44  2  0
 22 45  1  0
 23 45  1  0
 14 46  2  0
  7 47  1  0
 27 48  1  0
M  END
$$$$
