
     RDKit          3D

 20 22  0  0  0  0  0  0  0  0999 V2000
  -57.7300  -19.4656   22.6383 C   0  0  0  0  0  0  0  0  0  0  0  0
  -57.8493  -19.8324   23.9970 C   0  0  0  0  0  0  0  0  0  0  0  0
  -57.4935  -18.9412   25.0101 C   0  0  0  0  0  0  0  0  0  0  0  0
  -57.0215  -17.7049   24.6178 C   0  0  0  0  0  0  0  0  0  0  0  0
  -56.5514  -16.5818   25.4236 C   0  0  0  0  0  0  0  0  0  0  0  0
  -55.5897  -14.3411   24.9784 C   0  0  2  0  0  0  0  0  0  0  0  0
  -55.4496  -10.5536   26.6212 O   0  0  0  0  0  0  0  0  0  0  0  0
  -57.0085  -13.2353   23.3280 O   0  0  0  0  0  0  0  0  0  0  0  0
  -56.2165  -15.5827   24.5515 N   0  0  0  0  0  0  0  0  0  0  0  0
  -55.5032  -14.1684   26.4924 C   0  0  0  0  0  0  0  0  0  0  0  0
  -54.7964  -12.8581   26.8064 C   0  0  0  0  0  0  0  0  0  0  0  0
  -56.1442  -11.9405   24.9706 N   0  0  0  0  0  0  0  0  0  0  0  0
  -57.0412  -17.9041   20.9134 N   0  0  0  0  0  0  0  0  0  0  0  0
  -57.2879  -18.1909   22.2552 C   0  0  0  0  0  0  0  0  0  0  0  0
  -56.5012  -16.5822   26.6388 O   0  0  0  0  0  0  0  0  0  0  0  0
  -56.3323  -13.1566   24.3518 C   0  0  0  0  0  0  0  0  0  0  0  0
  -56.3792  -15.9789   23.2514 C   0  0  0  0  0  0  0  0  0  0  0  0
  -56.9111  -17.3434   23.2856 C   0  0  0  0  0  0  0  0  0  0  0  0
  -55.4960  -11.6877   26.1541 C   0  0  0  0  0  0  0  0  0  0  0  0
  -56.1540  -15.3526   22.2318 O   0  0  0  0  0  0  0  0  0  0  0  0
  1  2  4  0
  2  3  4  0
  3  4  4  0
  4  5  1  0
  5  9  1  0
  6  9  1  1
  6 10  1  0
 10 11  1  0
  1 14  4  0
 13 14  1  0
  5 15  2  0
 12 16  1  0
  8 16  2  0
  6 16  1  0
  9 17  1  0
  4 18  4  0
 17 18  1  0
 14 18  4  0
  7 19  2  0
 12 19  1  0
 11 19  1  0
 17 20  2  0
M  END
