
     RDKit          3D

 40 44  0  0  0  0  0  0  0  0999 V2000
    3.9818   17.3760    7.8708 N   0  0  0  0  0  0  0  0  0  0  0  0
    2.8906   17.5650    8.6418 C   0  0  0  0  0  0  0  0  0  0  0  0
    2.1599   19.6200    7.2890 C   0  0  0  0  0  0  0  0  0  0  0  0
    3.4761   21.3223    6.2069 C   0  0  0  0  0  0  0  0  0  0  0  0
    0.9943   20.1622    6.6693 C   0  0  0  0  0  0  0  0  0  0  0  0
   -1.3336   20.3387    7.1613 C   0  0  0  0  0  0  0  0  0  0  0  0
    4.0924   23.3265    5.1880 C   0  0  0  0  0  0  0  0  0  0  0  0
    5.9089   21.8582    6.2013 C   0  0  0  0  0  0  0  0  0  0  0  0
    8.1523   18.2553    9.0172 C   0  0  0  0  0  0  0  0  0  0  0  0
    9.3745   17.3689    8.7878 C   0  0  0  0  0  0  0  0  0  0  0  0
    8.0335   17.0814    6.2809 C   0  0  0  0  0  0  0  0  0  0  0  0
    8.6218   17.8051    5.2315 C   0  0  0  0  0  0  0  0  0  0  0  0
    7.8219   18.4887    4.3193 C   0  0  0  0  0  0  0  0  0  0  0  0
    6.4388   18.4268    4.4410 C   0  0  0  0  0  0  0  0  0  0  0  0
    5.8553   17.6717    5.4632 C   0  0  0  0  0  0  0  0  0  0  0  0
    6.6317   16.9787    6.4030 C   0  0  0  0  0  0  0  0  0  0  0  0
    4.9147   16.4548    8.2024 C   0  0  0  0  0  0  0  0  0  0  0  0
    3.4120   20.1945    7.0125 C   0  0  0  0  0  0  0  0  0  0  0  0
    2.3201   21.8623    5.6425 C   0  0  0  0  0  0  0  0  0  0  0  0
    1.0760   21.2876    5.8458 C   0  0  0  0  0  0  0  0  0  0  0  0
    2.6371   23.0530    4.7959 C   0  0  0  0  0  0  0  0  0  0  0  0
    6.9453   21.9341    5.0696 C   0  0  0  0  0  0  0  0  0  0  0  0
    9.1841   21.4698    5.8894 C   0  0  0  0  0  0  0  0  0  0  0  0
    8.7951   23.3359    4.4329 C   0  0  0  0  0  0  0  0  0  0  0  0
    3.5764   16.0311   10.1507 C   0  0  0  0  0  0  0  0  0  0  0  0
    4.6945   15.7598    9.3850 C   0  0  0  0  0  0  0  0  0  0  0  0
    4.7420   14.4040   11.1825 C   0  0  0  0  0  0  0  0  0  0  0  0
    3.6168   15.1928   11.2903 C   0  0  0  0  0  0  0  0  0  0  0  0
    9.7110   16.5727   10.0498 C   0  0  0  0  0  0  0  0  0  0  0  0
    6.0236   16.1723    7.3874 N   0  0  0  0  0  0  0  0  0  0  0  0
    1.9835   18.4912    8.1229 N   0  0  0  0  0  0  0  0  0  0  0  0
    4.5925   22.1125    5.8562 N   0  0  0  0  0  0  0  0  0  0  0  0
    8.2319   22.5225    5.5136 N   0  0  0  0  0  0  0  0  0  0  0  0
    2.6544   16.9417    9.7978 N   0  0  0  0  0  0  0  0  0  0  0  0
    5.3832   14.7507   10.0174 N   0  0  0  0  0  0  0  0  0  0  0  0
   -0.1835   19.5213    6.9888 O   0  0  0  0  0  0  0  0  0  0  0  0
    6.2892   21.5439    7.3300 O   0  0  0  0  0  0  0  0  0  0  0  0
    8.4422   15.0572    7.9110 O   0  0  0  0  0  0  0  0  0  0  0  0
   10.3963   16.0995    6.7023 O   0  0  0  0  0  0  0  0  0  0  0  0
    9.1337   16.2377    7.4066 S   0  0  2  0  0  6  0  0  0  0  0  0
  1  2  4  0
  3  5  4  0
  9 10  1  0
 11 12  4  0
 12 13  4  0
 13 14  4  0
 14 15  4  0
 15 16  4  0
 11 16  4  0
  1 17  4  0
  4 18  4  0
  3 18  4  0
  4 19  4  0
 19 20  4  0
  5 20  4  0
  7 21  1  0
 19 21  1  0
  8 22  1  0
 17 26  4  0
 25 26  4  0
 25 28  4  0
 27 28  4  0
 10 29  1  0
 16 30  1  0
 17 30  1  0
  3 31  1  0
  2 31  1  0
  7 32  1  0
  4 32  1  0
  8 32  1  0
 24 33  1  0
 22 33  1  0
 23 33  1  0
  2 34  4  0
 25 34  4  0
 26 35  4  0
 27 35  4  0
  6 36  1  0
  5 36  1  0
  8 37  2  0
 11 40  1  0
 39 40  2  0
 38 40  2  0
 10 40  1  0
M  END
