
     RDKit          3D

 27 30  0  0  0  0  0  0  0  0999 V2000
   14.4847   15.8359   37.4133 C   0  0  0  0  0  0  0  0  0  0  0  0
   12.8136   15.3666   35.2196 C   0  0  0  0  0  0  0  0  0  0  0  0
   12.3539   15.6980   33.9400 C   0  0  0  0  0  0  0  0  0  0  0  0
   10.9999   15.4513   33.6546 C   0  0  0  0  0  0  0  0  0  0  0  0
   10.1276   14.8956   34.5979 C   0  0  0  0  0  0  0  0  0  0  0  0
   10.6243   14.5782   35.8755 C   0  0  0  0  0  0  0  0  0  0  0  0
   11.9668   14.8207   36.1843 C   0  0  0  0  0  0  0  0  0  0  0  0
    8.7135   15.1337   32.9368 C   0  0  0  0  0  0  0  0  0  0  0  0
    7.5095   14.3977   30.9847 C   0  0  0  0  0  0  0  0  0  0  0  0
    6.0959   13.8939   30.7446 C   0  0  0  0  0  0  0  0  0  0  0  0
    5.2713   14.9445   30.0709 C   0  0  0  0  0  0  0  0  0  0  0  0
    3.9863   15.3370   30.4069 C   0  0  0  0  0  0  0  0  0  0  0  0
    4.9816   16.5549   28.5880 C   0  0  0  0  0  0  0  0  0  0  0  0
    5.7378   18.7421   27.5782 C   0  0  0  0  0  0  0  0  0  0  0  0
    5.8917   19.2215   26.2968 C   0  0  0  0  0  0  0  0  0  0  0  0
    5.5030   18.1931   25.4167 C   0  0  0  0  0  0  0  0  0  0  0  0
    5.1396   17.1152   26.1897 C   0  0  0  0  0  0  0  0  0  0  0  0
    8.8296   14.7128   34.1651 N   0  0  0  0  0  0  0  0  0  0  0  0
    7.6127   15.1571   32.1313 N   0  0  0  0  0  0  0  0  0  0  0  0
    5.2678   17.4365   27.5340 N   0  0  0  0  0  0  0  0  0  0  0  0
    5.8426   15.6539   29.0165 N   0  0  0  0  0  0  0  0  0  0  0  0
    8.4051   14.1340   30.1883 O   0  0  0  0  0  0  0  0  0  0  0  0
   15.2737   14.4769   35.3228 O   0  0  0  0  0  0  0  0  0  0  0  0
   14.8697   16.9587   35.0697 O   0  0  0  0  0  0  0  0  0  0  0  0
   14.5170   15.6727   35.6412 S   0  0  2  0  0  6  0  0  0  0  0  0
   10.1225   15.7405   32.2002 S   0  0  0  0  0  0  0  0  0  0  0  0
    3.4782   16.6209   29.3865 S   0  0  0  0  0  0  0  0  0  0  0  0
  2  3  4  0
  3  4  4  0
  4  5  4  0
  5  6  4  0
  2  7  4  0
  6  7  4  0
  9 10  1  0
 10 11  1  0
 11 12  4  0
 14 15  4  0
 15 16  4  0
 16 17  4  0
  8 18  4  0
  5 18  4  0
  9 19  1  0
  8 19  1  0
 14 20  4  0
 17 20  4  0
 13 20  1  0
 13 21  4  0
 11 21  4  0
  9 22  2  0
 25  1  1  1
  2 25  1  0
 23 25  2  0
 24 25  2  0
  8 26  4  0
  4 26  4  0
 13 27  4  0
 12 27  4  0
M  END
