7A9H_TPP_BBB_702
     RDKit          3D

 45 46  0  0  0  0  0  0  0  0999 V2000
   -0.4772    2.0594    1.0207 N   0  0  0  0  0  0  0  0  0  0  0  0
   -0.7673    3.1525    0.2712 C   0  0  0  0  0  0  0  0  0  0  0  0
   -1.9610    3.9869    0.5949 C   0  0  0  0  0  0  0  0  0  0  0  0
    0.0701    3.5271   -0.7299 N   0  0  0  0  0  0  0  0  0  0  0  0
    1.1841    2.8094   -1.0366 C   0  0  0  0  0  0  0  0  0  0  0  0
    2.0455    3.2994   -2.0700 N   0  0  0  0  0  0  0  0  0  0  0  0
    1.4669    1.6245   -0.3152 C   0  0  0  0  0  0  0  0  0  0  0  0
    0.6149    1.3007    0.7555 C   0  0  0  0  0  0  0  0  0  0  0  0
    2.6463    0.7252   -0.6389 C   0  0  0  0  0  0  0  0  0  0  0  0
    2.2904   -0.6934   -0.4836 N   0  0  0  0  0  4  0  0  0  0  0  0
    2.7737   -1.4537    0.5295 C   0  0  0  0  0  0  0  0  0  0  0  0
    2.0584   -2.9707    0.5306 S   0  0  0  0  0  0  0  0  0  0  0  0
    1.1148   -2.6698   -0.8295 C   0  0  0  0  0  0  0  0  0  0  0  0
    1.3821   -1.3645   -1.2648 C   0  0  0  0  0  0  0  0  0  0  0  0
    0.6582   -0.7133   -2.4158 C   0  0  0  0  0  0  0  0  0  0  0  0
    0.0369   -3.5977   -1.3210 C   0  0  0  0  0  0  0  0  0  0  0  0
   -1.3485   -3.1069   -0.8950 C   0  0  0  0  0  0  0  0  0  0  0  0
   -1.3783   -2.9412    0.5046 O   0  0  0  0  0  0  0  0  0  0  0  0
   -2.7525   -2.0174    0.9200 P   0  0  2  0  0  5  0  0  0  0  0  0
   -4.0033   -2.6475    0.3464 O   0  0  0  0  0  0  0  0  0  0  0  0
   -2.5787   -0.4570    0.2865 O   0  0  0  0  0  0  0  0  0  0  0  0
   -2.9049   -1.8932    2.6111 O   0  0  0  0  0  0  0  0  0  0  0  0
   -2.6407   -3.4406    3.2703 P   0  0  0  0  0  5  0  0  0  0  0  0
   -1.1622   -3.7633    3.2389 O   0  0  0  0  0  0  0  0  0  0  0  0
   -3.5023   -4.6242    2.4158 O   0  0  0  0  0  0  0  0  0  0  0  0
   -3.1671   -3.4328    4.8793 O   0  0  0  0  0  0  0  0  0  0  0  0
   -1.6411    4.8851    1.1617 H   0  0  0  0  0  0  0  0  0  0  0  0
   -2.4637    4.3070   -0.3416 H   0  0  0  0  0  0  0  0  0  0  0  0
   -2.6837    3.4074    1.2076 H   0  0  0  0  0  0  0  0  0  0  0  0
    1.7418    4.1140   -2.6484 H   0  0  0  0  0  0  0  0  0  0  0  0
    3.0286    2.9738   -2.1832 H   0  0  0  0  0  0  0  0  0  0  0  0
    0.8065    0.4333    1.3750 H   0  0  0  0  0  0  0  0  0  0  0  0
    3.4883    0.9936    0.0374 H   0  0  0  0  0  0  0  0  0  0  0  0
    3.0095    0.8715   -1.6746 H   0  0  0  0  0  0  0  0  0  0  0  0
    3.4851   -1.1047    1.2668 H   0  0  0  0  0  0  0  0  0  0  0  0
    0.2717   -1.4689   -3.1300 H   0  0  0  0  0  0  0  0  0  0  0  0
    1.3423   -0.0508   -2.9835 H   0  0  0  0  0  0  0  0  0  0  0  0
   -0.1922   -0.1142   -2.0283 H   0  0  0  0  0  0  0  0  0  0  0  0
    0.0843   -3.6832   -2.4275 H   0  0  0  0  0  0  0  0  0  0  0  0
    0.2075   -4.6135   -0.9027 H   0  0  0  0  0  0  0  0  0  0  0  0
   -2.1003   -3.8681   -1.1984 H   0  0  0  0  0  0  0  0  0  0  0  0
   -1.5633   -2.1589   -1.4383 H   0  0  0  0  0  0  0  0  0  0  0  0
   -3.3179    0.0639    0.6895 H   0  0  0  0  0  0  0  0  0  0  0  0
   -3.2667   -5.4764    2.8601 H   0  0  0  0  0  0  0  0  0  0  0  0
   -2.9729   -4.3451    5.2149 H   0  0  0  0  0  0  0  0  0  0  0  0
  1  2  2  0
  2  3  1  0
  2  4  1  0
  4  5  2  0
  5  6  1  0
  5  7  1  0
  1  8  1  0
  7  8  2  0
  7  9  1  0
  9 10  1  0
 10 11  2  0
 11 12  1  0
 12 13  1  0
 10 14  1  0
 13 14  2  0
 14 15  1  0
 13 16  1  0
 16 17  1  0
 17 18  1  0
 19 18  1  1
 19 20  2  0
 19 21  1  0
 19 22  1  0
 22 23  1  0
 23 24  2  0
 23 25  1  0
 23 26  1  0
  3 27  1  0
  3 28  1  0
  3 29  1  0
  6 30  1  0
  6 31  1  0
  8 32  1  0
  9 33  1  0
  9 34  1  0
 11 35  1  0
 15 36  1  0
 15 37  1  0
 15 38  1  0
 16 39  1  0
 16 40  1  0
 17 41  1  0
 17 42  1  0
 21 43  1  0
 25 44  1  0
 26 45  1  0
M  CHG  1  10   1
M  END
