7A9H_TPP_AAA_702
     RDKit          3D

 26 27  0  0  0  0  0  0  0  0999 V2000
   -0.9410    8.6310  -23.8420 N   0  0  0  0  0  0  0  0  0  0  0  0
    0.1390    7.9460  -24.2620 C   0  0  0  0  0  0  0  0  0  0  0  0
   -0.0730    6.6700  -25.0160 C   0  0  0  0  0  0  0  0  0  0  0  0
    1.4010    8.3020  -24.0050 N   0  0  0  0  0  0  0  0  0  0  0  0
    1.5970    9.4530  -23.3190 C   0  0  0  0  0  0  0  0  0  0  0  0
    2.8740    9.8240  -23.1170 N   0  0  0  0  0  0  0  0  0  0  0  0
    0.5240   10.2200  -22.7990 C   0  0  0  0  0  0  0  0  0  0  0  0
   -0.7310    9.7640  -23.1480 C   0  0  0  0  0  0  0  0  0  0  0  0
    0.7360   11.5260  -22.0240 C   0  0  0  0  0  0  0  0  0  0  0  0
    1.1890   11.3560  -20.6160 N   0  0  0  0  0  0  0  0  0  0  0  0
    2.4490   11.5960  -20.2380 C   0  0  0  0  0  0  0  0  0  0  0  0
    2.7000   11.2790  -18.5760 S   0  0  0  0  0  0  0  0  0  0  0  0
    1.0040   11.0110  -18.3550 C   0  0  0  0  0  0  0  0  0  0  0  0
    0.3430   11.0480  -19.5480 C   0  0  0  0  0  0  0  0  0  0  0  0
   -1.1270   10.8640  -19.7550 C   0  0  0  0  0  0  0  0  0  0  0  0
    0.4120   10.8260  -16.9780 C   0  0  0  0  0  0  0  0  0  0  0  0
    1.3610   10.4270  -15.8600 C   0  0  0  0  0  0  0  0  0  0  0  0
    1.8710    9.1030  -16.1170 O   0  0  0  0  0  0  0  0  0  0  0  0
    2.9540    8.3920  -15.1690 P   0  0  2  0  0  0  0  0  0  0  0  0
    3.3640    7.1960  -15.9700 O   0  0  0  0  0  0  0  0  0  0  0  0
    2.3640    8.1460  -13.8170 O   0  0  0  0  0  0  0  0  0  0  0  0
    4.1520    9.4540  -15.1030 O   0  0  0  0  0  0  0  0  0  0  0  0
    4.5490   10.5920  -13.9800 P   0  0  0  0  0  0  0  0  0  0  0  0
    4.6950   11.8720  -14.7150 O   0  0  0  0  0  0  0  0  0  0  0  0
    3.3720   10.5980  -12.9970 O   0  0  0  0  0  0  0  0  0  0  0  0
    5.8500   10.0770  -13.3670 O   0  0  0  0  0  0  0  0  0  0  0  0
  1  2  2  0
  2  3  1  0
  2  4  1  0
  4  5  2  0
  5  6  1  0
  5  7  1  0
  1  8  1  0
  7  8  2  0
  7  9  1  0
  9 10  1  0
 10 11  2  0
 11 12  1  0
 12 13  1  0
 10 14  1  0
 13 14  2  0
 14 15  1  0
 13 16  1  0
 16 17  1  0
 17 18  1  0
 18 19  1  0
 19 20  2  0
 19 21  1  1
 19 22  1  0
 22 23  1  0
 23 24  2  0
 23 25  1  0
 23 26  1  0
M  CHG  1  10   1
M  END
$$$$
