2BSM_BSM_A_1224
     RDKit          3D

 45 47  0  0  0  0  0  0  0  0999 V2000
   35.8926    8.1709   20.8796 C   0  0  0  0  0  0  0  0  0  0  0  0
   36.1523    7.5746   22.1518 O   0  0  0  0  0  0  0  0  0  0  0  0
   35.1910    7.8228   23.1281 C   0  0  0  0  0  0  0  0  0  0  0  0
   34.8228    6.8920   24.1278 C   0  0  0  0  0  0  0  0  0  0  0  0
   33.8391    7.2510   25.0911 C   0  0  0  0  0  0  0  0  0  0  0  0
   34.5735    9.0667   23.1174 C   0  0  0  0  0  0  0  0  0  0  0  0
   33.5884    9.4107   24.0494 C   0  0  0  0  0  0  0  0  0  0  0  0
   33.2084    8.5121   25.0398 C   0  0  0  0  0  0  0  0  0  0  0  0
   32.2118    8.8803   25.9758 C   0  0  0  0  0  0  0  0  0  0  0  0
   32.0963    8.4580   27.2773 C   0  0  0  0  0  0  0  0  0  0  0  0
   32.9951    7.4881   28.0552 C   0  0  0  0  0  0  0  0  0  0  0  0
   34.1462    7.7699   28.3493 O   0  0  0  0  0  0  0  0  0  0  0  0
   32.3943    6.3414   28.3918 N   0  0  0  0  0  0  0  0  0  0  0  0
   31.3249    5.6717   27.6008 C   0  0  0  0  0  0  0  0  0  0  0  0
   30.7848    6.5575   26.4764 C   0  0  0  0  0  0  0  0  0  0  0  0
   31.0157    9.0525   27.7887 N   0  0  0  0  0  0  0  0  0  0  0  0
   30.4403    9.7919   26.9399 N   0  0  0  0  0  4  0  0  0  0  0  0
   31.1226    9.7814   25.7960 C   0  0  0  0  0  0  0  0  0  0  0  0
   30.8251   10.4859   24.6290 C   0  0  0  0  0  0  0  0  0  0  0  0
   31.8294   10.8193   23.7391 C   0  0  0  0  0  0  0  0  0  0  0  0
   31.5386   11.5443   22.5721 C   0  0  0  0  0  0  0  0  0  0  0  0
   32.7961   11.9659   21.4650 Cl  0  0  0  0  0  0  0  0  0  0  0  0
   30.2387   11.9530   22.3150 C   0  0  0  0  0  0  0  0  0  0  0  0
   29.9484   12.6320   21.1785 O   0  0  0  0  0  0  0  0  0  0  0  0
   29.2212   11.6231   23.2209 C   0  0  0  0  0  0  0  0  0  0  0  0
   29.5307   10.9212   24.3847 C   0  0  0  0  0  0  0  0  0  0  0  0
   28.5588   10.6335   25.2561 O   0  0  0  0  0  0  0  0  0  0  0  0
   36.6827    7.9239   20.2018 H   0  0  0  0  0  0  0  0  0  0  0  0
   35.8356    9.2338   20.9889 H   0  0  0  0  0  0  0  0  0  0  0  0
   34.9647    7.8017   20.4954 H   0  0  0  0  0  0  0  0  0  0  0  0
   35.2644    5.9597   24.1582 H   0  0  0  0  0  0  0  0  0  0  0  0
   33.5842    6.5823   25.8347 H   0  0  0  0  0  0  0  0  0  0  0  0
   34.8491    9.7570   22.4014 H   0  0  0  0  0  0  0  0  0  0  0  0
   33.1401   10.3390   24.0013 H   0  0  0  0  0  0  0  0  0  0  0  0
   32.6812    5.9065   29.2272 H   0  0  0  0  0  0  0  0  0  0  0  0
   30.5183    5.4212   28.2576 H   0  0  0  0  0  0  0  0  0  0  0  0
   31.7516    4.7998   27.1507 H   0  0  0  0  0  0  0  0  0  0  0  0
   30.3501    7.4407   26.8958 H   0  0  0  0  0  0  0  0  0  0  0  0
   30.0408    6.0208   25.9256 H   0  0  0  0  0  0  0  0  0  0  0  0
   31.5857    6.8306   25.8215 H   0  0  0  0  0  0  0  0  0  0  0  0
   29.6120   10.2993   27.1003 H   0  0  0  0  0  0  0  0  0  0  0  0
   32.8015   10.5329   23.9343 H   0  0  0  0  0  0  0  0  0  0  0  0
   30.6316   12.8504   20.5758 H   0  0  0  0  0  0  0  0  0  0  0  0
   28.2459   11.8991   23.0268 H   0  0  0  0  0  0  0  0  0  0  0  0
   28.7578   10.1620   26.0410 H   0  0  0  0  0  0  0  0  0  0  0  0
  1  2  1  0
  2  3  1  0
  3  4  4  0
  4  5  4  0
  3  6  4  0
  6  7  4  0
  5  8  4  0
  7  8  4  0
  8  9  1  0
  9 10  4  0
 10 11  1  0
 11 12  2  0
 11 13  1  0
 13 14  1  0
 14 15  1  0
 10 16  4  0
 16 17  4  0
  9 18  4  0
 17 18  4  0
 18 19  1  0
 19 20  4  0
 20 21  4  0
 21 22  1  0
 21 23  4  0
 23 24  1  0
 23 25  4  0
 19 26  4  0
 25 26  4  0
 26 27  1  0
  1 28  1  0
  1 29  1  0
  1 30  1  0
  4 31  1  0
  5 32  1  0
  6 33  1  0
  7 34  1  0
 13 35  1  0
 14 36  1  0
 14 37  1  0
 15 38  1  0
 15 39  1  0
 15 40  1  0
 17 41  1  0
 20 42  1  0
 24 43  1  0
 25 44  1  0
 27 45  1  0
M  CHG  1  17   1
M  END
