8EAD_UY0_A_202
     RDKit          3D

 38 41  0  0  0  0  0  0  0  0999 V2000
   14.3518   -9.5355   -1.9836 C   0  0  0  0  0  0  0  0  0  0  0  0
   15.2913  -11.0560   -5.2721 C   0  0  0  0  0  0  0  0  0  0  0  0
   17.3142  -12.0851   -5.1897 C   0  0  0  0  0  0  0  0  0  0  0  0
   16.6621  -13.1166   -7.0645 C   0  0  0  0  0  0  0  0  0  0  0  0
   13.9877   -9.2611    0.3856 C   0  0  0  0  0  0  0  0  0  0  0  0
   11.7623   -7.1452    3.9389 C   0  0  0  0  0  0  0  0  0  0  0  0
    9.3980   -6.7926    3.1303 C   0  0  0  0  0  0  0  0  0  0  0  0
    7.0951   -6.5331    2.6149 C   0  0  0  0  0  0  0  0  0  0  0  0
   12.0508   -7.3465    6.4778 C   0  0  0  0  0  0  0  0  0  0  0  0
   12.5909   -7.2588    5.0444 C   0  0  0  0  0  0  0  0  0  0  0  0
   13.9627   -7.2131    4.8132 C   0  0  0  0  0  0  0  0  0  0  0  0
   13.5560   -7.0469    2.5773 C   0  0  0  0  0  0  0  0  0  0  0  0
   14.1697   -7.9144    0.2412 C   0  0  0  0  0  0  0  0  0  0  0  0
   14.4703   -7.3588   -0.9931 C   0  0  0  0  0  0  0  0  0  0  0  0
   14.5469   -8.1760   -2.1150 C   0  0  0  0  0  0  0  0  0  0  0  0
   15.4321  -10.1098   -4.0614 C   0  0  0  0  0  0  0  0  0  0  0  0
   17.7162  -12.9541   -6.4030 C   0  0  0  0  0  0  0  0  0  0  0  0
   15.4377  -12.9687   -6.0092 C   0  0  0  0  0  0  0  0  0  0  0  0
   14.0746  -10.0782   -0.7517 C   0  0  0  0  0  0  0  0  0  0  0  0
    8.0768   -6.9130    3.5098 C   0  0  0  0  0  0  0  0  0  0  0  0
    7.4476   -6.0733    1.3867 C   0  0  0  0  0  0  0  0  0  0  0  0
    8.7564   -5.9233    1.0024 C   0  0  0  0  0  0  0  0  0  0  0  0
    7.7529   -2.9337   -0.8679 C   0  0  1  0  0  0  0  0  0  0  0  0
    6.9746   -2.7742    0.4276 C   0  0  0  0  0  0  0  0  0  0  0  0
    6.9633   -3.7696   -1.8483 C   0  0  0  0  0  0  0  0  0  0  0  0
    8.0620   -1.6150   -1.5423 C   0  0  0  0  0  0  0  0  0  0  0  0
    9.7614   -6.2984    1.8829 C   0  0  0  0  0  0  0  0  0  0  0  0
   14.4129   -7.1180    3.5768 N   0  0  0  0  0  0  0  0  0  0  0  0
   14.1475   -6.9233    1.2999 N   0  0  0  0  0  0  0  0  0  0  0  0
   15.8031  -12.1355   -5.1017 N   0  0  0  0  0  0  0  0  0  0  0  0
   12.2312   -7.0816    2.7053 N   0  0  0  0  0  0  0  0  0  0  0  0
   10.3581   -7.1906    4.1432 N   0  0  0  0  0  0  0  0  0  0  0  0
    9.0257   -5.4171   -0.3260 N   0  0  0  0  0  0  0  0  0  0  0  0
   14.4400  -10.4105   -3.1051 O   0  0  0  0  0  0  0  0  0  0  0  0
   10.0559   -3.1485    0.5090 O   0  0  0  0  0  0  0  0  0  0  0  0
   10.1294   -3.7263   -1.8164 O   0  0  0  0  0  0  0  0  0  0  0  0
    9.3036   -3.7826   -0.5927 S   0  0  2  0  0  0  0  0  0  0  0  0
    6.1437   -5.5903    0.2732 Cl  0  0  0  0  0  0  0  0  0  0  0  0
  6 10  2  0
  9 10  1  0
 10 11  1  0
  5 13  2  0
 13 14  1  0
  1 15  1  0
 14 15  2  0
  2 16  1  0
  4 17  1  0
  3 17  1  0
  4 18  1  0
  1 19  2  0
  5 19  1  0
  7 20  1  0
  8 20  2  0
  8 21  1  0
 21 22  2  0
 23 24  1  1
 23 25  1  0
 23 26  1  0
 22 27  1  0
  7 27  2  0
 12 28  1  0
 11 28  2  0
 13 29  1  0
 12 29  1  0
  2 30  1  0
 18 30  1  0
  3 30  1  0
 12 31  2  0
  6 31  1  0
  7 32  1  0
  6 32  1  0
 22 33  1  0
 16 34  1  0
  1 34  1  0
 36 37  2  0
 23 37  1  0
 35 37  2  0
 37 33  1  1
 21 38  1  0
M  END
