1TZ8_DES_B_128
     RDKit          3D

 20 21  0  0  0  0  0  0  0  0999 V2000
   24.3727   62.2697   17.1426 C   0  0  0  0  0  0  0  0  0  0  0  0
   24.7351   61.1611   18.0731 C   0  0  0  0  0  0  0  0  0  0  0  0
   26.0499   61.2940   18.7516 C   0  0  0  0  0  0  0  0  0  0  0  0
   26.8829   62.4228   18.3511 C   0  0  0  0  0  0  0  0  0  0  0  0
   28.1780   62.1871   17.8798 C   0  0  0  0  0  0  0  0  0  0  0  0
   29.0216   63.2086   17.5008 C   0  0  0  0  0  0  0  0  0  0  0  0
   28.6045   64.5199   17.5760 C   0  0  0  0  0  0  0  0  0  0  0  0
   29.4455   65.5569   17.1944 O   0  0  0  0  0  0  0  0  0  0  0  0
   27.3348   64.7773   18.0368 C   0  0  0  0  0  0  0  0  0  0  0  0
   26.4776   63.7361   18.4231 C   0  0  0  0  0  0  0  0  0  0  0  0
   26.5051   60.4091   19.6320 C   0  0  0  0  0  0  0  0  0  0  0  0
   25.7606   59.1714   19.9610 C   0  0  0  0  0  0  0  0  0  0  0  0
   26.3164   57.9225   19.6625 C   0  0  0  0  0  0  0  0  0  0  0  0
   25.6305   56.7788   20.0120 C   0  0  0  0  0  0  0  0  0  0  0  0
   24.4040   56.8645   20.6525 C   0  0  0  0  0  0  0  0  0  0  0  0
   23.6871   55.7109   21.0163 O   0  0  0  0  0  0  0  0  0  0  0  0
   23.8326   58.0820   20.9604 C   0  0  0  0  0  0  0  0  0  0  0  0
   24.5320   59.2135   20.6033 C   0  0  0  0  0  0  0  0  0  0  0  0
   27.7711   60.5860   20.3903 C   0  0  0  0  0  0  0  0  0  0  0  0
   27.6403   59.8455   21.7321 C   0  0  0  0  0  0  0  0  0  0  0  0
  1  2  1  0
  2  3  1  0
  3  4  1  0
  4  5  2  0
  5  6  1  0
  6  7  2  0
  7  8  1  0
  7  9  1  0
  4 10  1  0
  9 10  2  0
  3 11  2  0
 11 12  1  0
 12 13  2  0
 13 14  1  0
 14 15  2  0
 15 16  1  0
 15 17  1  0
 12 18  1  0
 17 18  2  0
 11 19  1  0
 19 20  1  0
M  END
$$$$
