1TZ8_DES_B_128
     RDKit          3D

 20 21  0  0  0  0  0  0  0  0999 V2000
   21.7116   60.4516   40.4675 C   0  0  0  0  0  0  0  0  0  0  0  0
   22.8814   61.3760   40.5237 C   0  0  0  0  0  0  0  0  0  0  0  0
   23.3472   61.7427   41.8858 C   0  0  0  0  0  0  0  0  0  0  0  0
   22.4623   61.4026   42.9948 C   0  0  0  0  0  0  0  0  0  0  0  0
   22.5240   60.1230   43.5547 C   0  0  0  0  0  0  0  0  0  0  0  0
   21.7058   59.7324   44.5923 C   0  0  0  0  0  0  0  0  0  0  0  0
   20.7839   60.6102   45.1202 C   0  0  0  0  0  0  0  0  0  0  0  0
   19.9561   60.2279   46.1675 O   0  0  0  0  0  0  0  0  0  0  0  0
   20.7040   61.8748   44.5860 C   0  0  0  0  0  0  0  0  0  0  0  0
   21.5371   62.2704   43.5289 C   0  0  0  0  0  0  0  0  0  0  0  0
   24.4740   62.4092   42.1126 C   0  0  0  0  0  0  0  0  0  0  0  0
   25.5830   62.4378   41.1309 C   0  0  0  0  0  0  0  0  0  0  0  0
   25.6541   63.4692   40.1881 C   0  0  0  0  0  0  0  0  0  0  0  0
   26.7144   63.5055   39.3077 C   0  0  0  0  0  0  0  0  0  0  0  0
   27.6997   62.5316   39.3558 C   0  0  0  0  0  0  0  0  0  0  0  0
   28.7886   62.5488   38.4664 O   0  0  0  0  0  0  0  0  0  0  0  0
   27.6564   61.5039   40.2754 C   0  0  0  0  0  0  0  0  0  0  0  0
   26.5897   61.4837   41.1464 C   0  0  0  0  0  0  0  0  0  0  0  0
   24.7458   63.1533   43.3702 C   0  0  0  0  0  0  0  0  0  0  0  0
   26.1724   63.7238   43.2977 C   0  0  0  0  0  0  0  0  0  0  0  0
  1  2  1  0
  2  3  1  0
  3  4  1  0
  4  5  2  0
  5  6  1  0
  6  7  2  0
  7  8  1  0
  7  9  1  0
  4 10  1  0
  9 10  2  0
  3 11  2  0
 11 12  1  0
 12 13  2  0
 13 14  1  0
 14 15  2  0
 15 16  1  0
 15 17  1  0
 12 18  1  0
 17 18  2  0
 11 19  1  0
 19 20  1  0
M  END
$$$$
