1TZ8_DES_B_128
     RDKit          3D

 20 21  0  0  0  0  0  0  0  0999 V2000
   30.8826   64.5579    7.2505 C   0  0  0  0  0  0  0  0  0  0  0  0
   32.3193   64.6411    6.8567 C   0  0  0  0  0  0  0  0  0  0  0  0
   33.0808   65.7773    7.4362 C   0  0  0  0  0  0  0  0  0  0  0  0
   32.3978   66.5756    8.4486 C   0  0  0  0  0  0  0  0  0  0  0  0
   31.6508   67.6900    8.0552 C   0  0  0  0  0  0  0  0  0  0  0  0
   30.9952   68.4949    8.9613 C   0  0  0  0  0  0  0  0  0  0  0  0
   31.0573   68.2188   10.3101 C   0  0  0  0  0  0  0  0  0  0  0  0
   30.3985   69.0219   11.2316 O   0  0  0  0  0  0  0  0  0  0  0  0
   31.7863   67.1280   10.7218 C   0  0  0  0  0  0  0  0  0  0  0  0
   32.4539   66.3102    9.7979 C   0  0  0  0  0  0  0  0  0  0  0  0
   34.2975   66.1198    7.0266 C   0  0  0  0  0  0  0  0  0  0  0  0
   35.0338   65.3379    6.0062 C   0  0  0  0  0  0  0  0  0  0  0  0
   35.2817   65.8935    4.7463 C   0  0  0  0  0  0  0  0  0  0  0  0
   36.0040   65.1701    3.8212 C   0  0  0  0  0  0  0  0  0  0  0  0
   36.4800   63.9066    4.1354 C   0  0  0  0  0  0  0  0  0  0  0  0
   37.2173   63.1513    3.2064 O   0  0  0  0  0  0  0  0  0  0  0  0
   36.2520   63.3344    5.3700 C   0  0  0  0  0  0  0  0  0  0  0  0
   35.5283   64.0715    6.2810 C   0  0  0  0  0  0  0  0  0  0  0  0
   35.0458   67.2842    7.5681 C   0  0  0  0  0  0  0  0  0  0  0  0
   36.2184   67.5903    6.6209 C   0  0  0  0  0  0  0  0  0  0  0  0
  1  2  1  0
  2  3  1  0
  3  4  1  0
  4  5  2  0
  5  6  1  0
  6  7  2  0
  7  8  1  0
  7  9  1  0
  4 10  1  0
  9 10  2  0
  3 11  2  0
 11 12  1  0
 12 13  2  0
 13 14  1  0
 14 15  2  0
 15 16  1  0
 15 17  1  0
 12 18  1  0
 17 18  2  0
 11 19  1  0
 19 20  1  0
M  END
$$$$
