1TZ8_DES_B_128
     RDKit          3D

 20 21  0  0  0  0  0  0  0  0999 V2000
   13.4546   62.3116   27.5868 C   0  0  0  0  0  0  0  0  0  0  0  0
   12.8586   62.3907   28.9523 C   0  0  0  0  0  0  0  0  0  0  0  0
   11.4025   62.6799   29.0033 C   0  0  0  0  0  0  0  0  0  0  0  0
   10.6463   62.4553   27.7760 C   0  0  0  0  0  0  0  0  0  0  0  0
    9.8556   63.4859   27.2586 C   0  0  0  0  0  0  0  0  0  0  0  0
    9.1046   63.3345   26.1132 C   0  0  0  0  0  0  0  0  0  0  0  0
    9.1117   62.1381   25.4293 C   0  0  0  0  0  0  0  0  0  0  0  0
    8.3607   61.9754   24.2728 O   0  0  0  0  0  0  0  0  0  0  0  0
    9.8815   61.1091   25.9188 C   0  0  0  0  0  0  0  0  0  0  0  0
   10.6446   61.2648   27.0856 C   0  0  0  0  0  0  0  0  0  0  0  0
   10.7997   63.1845   30.0745 C   0  0  0  0  0  0  0  0  0  0  0  0
    9.3244   63.2224   30.2031 C   0  0  0  0  0  0  0  0  0  0  0  0
    8.5778   62.0530   30.0216 C   0  0  0  0  0  0  0  0  0  0  0  0
    7.2095   62.0950   30.1851 C   0  0  0  0  0  0  0  0  0  0  0  0
    6.5799   63.2821   30.5260 C   0  0  0  0  0  0  0  0  0  0  0  0
    5.1857   63.3474   30.6961 O   0  0  0  0  0  0  0  0  0  0  0  0
    7.2906   64.4499   30.7126 C   0  0  0  0  0  0  0  0  0  0  0  0
    8.6562   64.3889   30.5446 C   0  0  0  0  0  0  0  0  0  0  0  0
   11.5330   63.7848   31.2195 C   0  0  0  0  0  0  0  0  0  0  0  0
   10.7802   63.4354   32.5145 C   0  0  0  0  0  0  0  0  0  0  0  0
  1  2  1  0
  2  3  1  0
  3  4  1  0
  4  5  2  0
  5  6  1  0
  6  7  2  0
  7  8  1  0
  7  9  1  0
  4 10  1  0
  9 10  2  0
  3 11  2  0
 11 12  1  0
 12 13  2  0
 13 14  1  0
 14 15  2  0
 15 16  1  0
 15 17  1  0
 12 18  1  0
 17 18  2  0
 11 19  1  0
 19 20  1  0
M  END
$$$$
