1TZ8_DES_B_128
     RDKit          3D

 20 21  0  0  0  0  0  0  0  0999 V2000
   38.1262   75.3913  -18.2497 C   0  0  0  0  0  0  0  0  0  0  0  0
   39.0982   74.7091  -17.3464 C   0  0  0  0  0  0  0  0  0  0  0  0
   38.9699   73.2317  -17.2608 C   0  0  0  0  0  0  0  0  0  0  0  0
   38.1235   72.5883  -18.2599 C   0  0  0  0  0  0  0  0  0  0  0  0
   38.7056   72.0647  -19.4183 C   0  0  0  0  0  0  0  0  0  0  0  0
   37.9619   71.4594  -20.4078 C   0  0  0  0  0  0  0  0  0  0  0  0
   36.5940   71.3493  -20.2817 C   0  0  0  0  0  0  0  0  0  0  0  0
   35.8352   70.7390  -21.2716 O   0  0  0  0  0  0  0  0  0  0  0  0
   35.9981   71.8571  -19.1513 C   0  0  0  0  0  0  0  0  0  0  0  0
   36.7568   72.4739  -18.1453 C   0  0  0  0  0  0  0  0  0  0  0  0
   39.5274   72.5094  -16.2949 C   0  0  0  0  0  0  0  0  0  0  0  0
   40.2247   73.1345  -15.1470 C   0  0  0  0  0  0  0  0  0  0  0  0
   39.8358   72.8217  -13.8399 C   0  0  0  0  0  0  0  0  0  0  0  0
   40.5210   73.3793  -12.7813 C   0  0  0  0  0  0  0  0  0  0  0  0
   41.5837   74.2399  -13.0089 C   0  0  0  0  0  0  0  0  0  0  0  0
   42.2949   74.8207  -11.9440 O   0  0  0  0  0  0  0  0  0  0  0  0
   41.9900   74.5650  -14.2866 C   0  0  0  0  0  0  0  0  0  0  0  0
   41.2936   73.9990  -15.3314 C   0  0  0  0  0  0  0  0  0  0  0  0
   39.5383   71.0232  -16.2866 C   0  0  0  0  0  0  0  0  0  0  0  0
   40.8931   70.5510  -15.7323 C   0  0  0  0  0  0  0  0  0  0  0  0
  1  2  1  0
  2  3  1  0
  3  4  1  0
  4  5  2  0
  5  6  1  0
  6  7  2  0
  7  8  1  0
  7  9  1  0
  4 10  1  0
  9 10  2  0
  3 11  2  0
 11 12  1  0
 12 13  2  0
 13 14  1  0
 14 15  2  0
 15 16  1  0
 15 17  1  0
 12 18  1  0
 17 18  2  0
 11 19  1  0
 19 20  1  0
M  END
$$$$
