1TZ8_DES_B_128
     RDKit          3D

 20 21  0  0  0  0  0  0  0  0999 V2000
   26.6026   79.7543   27.0067 C   0  0  0  0  0  0  0  0  0  0  0  0
   26.9622   78.6348   27.9252 C   0  0  0  0  0  0  0  0  0  0  0  0
   27.5085   77.4171   27.2730 C   0  0  0  0  0  0  0  0  0  0  0  0
   27.5328   77.4099   25.8142 C   0  0  0  0  0  0  0  0  0  0  0  0
   28.5522   78.0902   25.1413 C   0  0  0  0  0  0  0  0  0  0  0  0
   28.6243   78.1363   23.7660 C   0  0  0  0  0  0  0  0  0  0  0  0
   27.6743   77.4991   22.9974 C   0  0  0  0  0  0  0  0  0  0  0  0
   27.7387   77.5371   21.6109 O   0  0  0  0  0  0  0  0  0  0  0  0
   26.6614   76.8235   23.6364 C   0  0  0  0  0  0  0  0  0  0  0  0
   26.5890   76.7784   25.0367 C   0  0  0  0  0  0  0  0  0  0  0  0
   27.8988   76.3434   27.9513 C   0  0  0  0  0  0  0  0  0  0  0  0
   28.1972   76.3939   29.4015 C   0  0  0  0  0  0  0  0  0  0  0  0
   29.5074   76.1983   29.8516 C   0  0  0  0  0  0  0  0  0  0  0  0
   29.7771   76.2891   31.2007 C   0  0  0  0  0  0  0  0  0  0  0  0
   28.7620   76.5716   32.1015 C   0  0  0  0  0  0  0  0  0  0  0  0
   29.0147   76.6671   33.4813 O   0  0  0  0  0  0  0  0  0  0  0  0
   27.4614   76.7704   31.6862 C   0  0  0  0  0  0  0  0  0  0  0  0
   27.2108   76.6753   30.3352 C   0  0  0  0  0  0  0  0  0  0  0  0
   28.1064   75.0111   27.3261 C   0  0  0  0  0  0  0  0  0  0  0  0
   28.3391   73.9813   28.4447 C   0  0  0  0  0  0  0  0  0  0  0  0
  1  2  1  0
  2  3  1  0
  3  4  1  0
  4  5  2  0
  5  6  1  0
  6  7  2  0
  7  8  1  0
  7  9  1  0
  4 10  1  0
  9 10  2  0
  3 11  2  0
 11 12  1  0
 12 13  2  0
 13 14  1  0
 14 15  2  0
 15 16  1  0
 15 17  1  0
 12 18  1  0
 17 18  2  0
 11 19  1  0
 19 20  1  0
M  END
$$$$
