8AEM_LVF_A_407
     RDKit          3D

 13 14  0  0  0  0  0  0  0  0999 V2000
 -110.1140 -176.3490  310.6060 C   0  0  0  0  0  0  0  0  0  0  0  0
 -108.8610 -175.8310  310.6200 C   0  0  0  0  0  0  0  0  0  0  0  0
 -108.2830 -174.9400  309.6600 C   0  0  0  0  0  0  0  0  0  0  0  0
 -107.3080 -175.6030  308.8060 C   0  0  0  0  0  0  0  0  0  0  0  0
 -108.1820 -176.4580  311.7080 C   0  0  0  0  0  0  0  0  0  0  0  0
 -106.9080 -176.3560  312.2330 C   0  0  0  0  0  0  0  0  0  0  0  0
 -110.2530 -177.2780  311.5850 N   0  0  0  0  0  0  0  0  0  0  0  0
 -108.7150 -178.1610  313.3570 C   0  0  0  0  0  0  0  0  0  0  0  0
 -106.5590 -177.1520  313.3030 C   0  0  0  0  0  0  0  0  0  0  0  0
 -109.0790 -177.3650  312.2840 C   0  0  0  0  0  0  0  0  0  0  0  0
 -106.5010 -176.0740  308.2290 N   0  0  0  0  0  0  0  0  0  0  0  0
 -104.9790 -176.9700  314.0070 Cl  0  0  0  0  0  0  0  0  0  0  0  0
 -107.4330 -178.0560  313.8600 C   0  0  0  0  0  0  0  0  0  0  0  0
  1  2  2  0
  2  3  1  0
  3  4  1  0
  2  5  1  0
  5  6  2  0
  1  7  1  0
  6  9  1  0
  7 10  1  0
  5 10  1  0
  8 10  2  0
  4 11  3  0
  9 12  1  0
  9 13  2  0
  8 13  1  0
M  END
$$$$
