7UTW_NAI_A_403
     RDKit          3D

 73 77  0  0  0  0  0  0  0  0999 V2000
   19.9000  -19.4114  -18.1151 P   0  0  2  0  0  5  0  0  0  0  0  0
   19.6509  -20.7517  -17.4548 O   0  0  0  0  0  0  0  0  0  0  0  0
   19.4570  -19.5146  -19.7461 O   0  0  0  0  0  0  0  0  0  0  0  0
   21.5524  -18.9917  -18.0010 O   0  0  0  0  0  0  0  0  0  0  0  0
   22.2866  -19.8312  -18.8583 C   0  0  2  0  0  0  0  0  0  0  0  0
   23.6702  -19.2136  -19.1111 C   0  0  1  0  0  0  0  0  0  0  0  0
   24.3169  -18.9813  -17.8775 O   0  0  0  0  0  0  0  0  0  0  0  0
   24.5534  -20.1218  -19.9592 C   0  0  1  0  0  0  0  0  0  0  0  0
   25.4461  -19.3302  -20.7036 O   0  0  0  0  0  0  0  0  0  0  0  0
   25.2745  -20.9267  -18.9013 C   0  0  1  0  0  0  0  0  0  0  0  0
   26.5566  -21.3504  -19.3044 O   0  0  0  0  0  0  0  0  0  0  0  0
   25.2971  -19.9850  -17.6871 C   0  0  2  0  0  0  0  0  0  0  0  0
   25.0402  -20.6976  -16.4278 N   0  0  0  0  0  0  0  0  0  0  0  0
   24.6766  -20.1490  -15.2374 C   0  0  0  0  0  0  0  0  0  0  0  0
   24.6397  -21.0443  -14.2125 N   0  0  0  0  0  0  0  0  0  0  0  0
   25.0156  -22.1923  -14.8073 C   0  0  0  0  0  0  0  0  0  0  0  0
   25.2022  -23.4534  -14.2523 C   0  0  0  0  0  0  0  0  0  0  0  0
   24.9391  -23.7171  -12.8741 N   0  0  0  0  0  0  0  0  0  0  0  0
   25.6417  -24.4496  -15.0798 N   0  0  0  0  0  0  0  0  0  0  0  0
   25.9126  -24.2119  -16.4024 C   0  0  0  0  0  0  0  0  0  0  0  0
   25.7325  -22.9645  -16.9339 N   0  0  0  0  0  0  0  0  0  0  0  0
   25.2715  -21.9842  -16.1200 C   0  0  0  0  0  0  0  0  0  0  0  0
   18.9176  -18.2335  -17.3733 O   0  0  0  0  0  0  0  0  0  0  0  0
   19.8766  -17.3895  -16.2493 P   0  0  2  0  0  5  0  0  0  0  0  0
   20.0201  -18.2631  -14.8019 O   0  0  0  0  0  0  0  0  0  0  0  0
   19.1921  -16.0756  -15.9469 O   0  0  0  0  0  0  0  0  0  0  0  0
   21.3991  -17.0647  -16.9512 O   0  0  0  0  0  0  0  0  0  0  0  0
   22.3132  -16.7195  -15.9369 C   0  0  1  0  0  0  0  0  0  0  0  0
   23.5313  -16.0293  -16.5578 C   0  0  1  0  0  0  0  0  0  0  0  0
   24.5352  -15.8742  -15.5834 O   0  0  0  0  0  0  0  0  0  0  0  0
   24.1386  -16.8140  -17.7138 C   0  0  1  0  0  0  0  0  0  0  0  0
   23.5021  -16.5238  -18.9344 O   0  0  0  0  0  0  0  0  0  0  0  0
   25.5772  -16.3398  -17.7044 C   0  0  1  0  0  0  0  0  0  0  0  0
   25.8229  -15.3397  -18.6688 O   0  0  0  0  0  0  0  0  0  0  0  0
   25.7648  -15.7968  -16.2761 C   0  0  2  0  0  0  0  0  0  0  0  0
   26.7971  -16.5606  -15.5605 N   0  0  0  0  0  0  0  0  0  0  0  0
   26.5554  -17.0320  -14.2203 C   0  0  0  0  0  0  0  0  0  0  0  0
   27.4669  -17.7770  -13.5681 C   0  0  0  0  0  0  0  0  0  0  0  0
   27.1732  -18.2863  -12.2004 C   0  0  0  0  0  0  0  0  0  0  0  0
   25.9897  -18.2839  -11.7662 O   0  0  0  0  0  0  0  0  0  0  0  0
   28.2085  -18.7974  -11.3561 N   0  0  0  0  0  0  0  0  0  0  0  0
   28.8124  -18.0725  -14.2040 C   0  0  2  0  0  0  0  0  0  0  0  0
   28.8928  -17.7360  -15.6653 C   0  0  0  0  0  0  0  0  0  0  0  0
   27.9592  -17.0073  -16.2737 C   0  0  0  0  0  0  0  0  0  0  0  0
   20.0742  -20.1866  -20.1281 H   0  0  0  0  0  0  0  0  0  0  0  0
   21.7647  -19.9340  -19.8360 H   0  0  0  0  0  0  0  0  0  0  0  0
   22.4257  -20.8370  -18.3988 H   0  0  0  0  0  0  0  0  0  0  0  0
   23.5255  -18.2408  -19.6293 H   0  0  0  0  0  0  0  0  0  0  0  0
   23.9569  -20.7781  -20.6383 H   0  0  0  0  0  0  0  0  0  0  0  0
   25.8238  -19.9155  -21.4103 H   0  0  0  0  0  0  0  0  0  0  0  0
   24.6588  -21.8266  -18.6760 H   0  0  0  0  0  0  0  0  0  0  0  0
   26.5219  -21.5917  -20.2665 H   0  0  0  0  0  0  0  0  0  0  0  0
   26.2837  -19.4797  -17.6064 H   0  0  0  0  0  0  0  0  0  0  0  0
   24.4613  -19.1003  -15.1043 H   0  0  0  0  0  0  0  0  0  0  0  0
   23.9629  -23.7139  -12.5024 H   0  0  0  0  0  0  0  0  0  0  0  0
   25.7254  -23.9149  -12.2167 H   0  0  0  0  0  0  0  0  0  0  0  0
   26.2734  -25.0166  -17.0285 H   0  0  0  0  0  0  0  0  0  0  0  0
   20.7307  -18.9317  -14.9657 H   0  0  0  0  0  0  0  0  0  0  0  0
   21.8625  -16.0066  -15.2081 H   0  0  0  0  0  0  0  0  0  0  0  0
   22.6504  -17.6319  -15.3977 H   0  0  0  0  0  0  0  0  0  0  0  0
   23.2232  -15.0188  -16.9112 H   0  0  0  0  0  0  0  0  0  0  0  0
   24.1233  -17.9075  -17.4947 H   0  0  0  0  0  0  0  0  0  0  0  0
   22.8009  -17.2130  -19.0687 H   0  0  0  0  0  0  0  0  0  0  0  0
   26.2557  -17.1969  -17.9111 H   0  0  0  0  0  0  0  0  0  0  0  0
   24.9567  -14.9066  -18.8920 H   0  0  0  0  0  0  0  0  0  0  0  0
   26.0587  -14.7231  -16.3081 H   0  0  0  0  0  0  0  0  0  0  0  0
   25.6090  -16.7969  -13.7474 H   0  0  0  0  0  0  0  0  0  0  0  0
   28.6708  -18.1679  -10.6614 H   0  0  0  0  0  0  0  0  0  0  0  0
   28.5371  -19.7846  -11.4158 H   0  0  0  0  0  0  0  0  0  0  0  0
   29.0366  -19.1550  -14.0931 H   0  0  0  0  0  0  0  0  0  0  0  0
   29.5955  -17.4926  -13.6702 H   0  0  0  0  0  0  0  0  0  0  0  0
   29.7629  -18.0516  -16.2234 H   0  0  0  0  0  0  0  0  0  0  0  0
   28.0824  -16.7624  -17.3215 H   0  0  0  0  0  0  0  0  0  0  0  0
  1  2  2  0
  1  3  1  6
  1  4  1  0
  4  5  1  0
  6  5  1  0
  6  7  1  0
  6  8  1  0
  8  9  1  0
  8 10  1  0
 10 11  1  0
  7 12  1  0
 10 12  1  0
 12 13  1  0
 13 14  1  0
 14 15  2  0
 15 16  1  0
 16 17  2  0
 17 18  1  0
 17 19  1  0
 19 20  2  0
 20 21  1  0
 13 22  1  0
 16 22  1  0
 21 22  2  0
  1 23  1  0
 24 23  1  6
 24 25  1  0
 24 26  2  0
 24 27  1  0
 27 28  1  0
 29 28  1  0
 29 30  1  0
 29 31  1  0
 31 32  1  0
 31 33  1  0
 33 34  1  0
 30 35  1  0
 33 35  1  0
 35 36  1  0
 36 37  1  0
 37 38  2  0
 38 39  1  0
 39 40  2  0
 39 41  1  0
 38 42  1  0
 42 43  1  0
 36 44  1  0
 43 44  2  0
  3 45  1  0
  5 46  1  6
  5 47  1  0
  6 48  1  6
  8 49  1  6
  9 50  1  0
 10 51  1  1
 11 52  1  0
 12 53  1  1
 14 54  1  0
 18 55  1  0
 18 56  1  0
 20 57  1  0
 25 58  1  0
 28 59  1  1
 28 60  1  0
 29 61  1  6
 31 62  1  1
 32 63  1  0
 33 64  1  6
 34 65  1  0
 35 66  1  6
 37 67  1  0
 41 68  1  0
 41 69  1  0
 42 70  1  6
 42 71  1  0
 43 72  1  0
 44 73  1  0
M  END
