8FLN_Y7W_A_701
     RDKit          3D

 34 36  0  0  0  0  0  0  0  0999 V2000
  -20.9772    5.8164    2.7534 N   0  0  0  0  0  0  0  0  0  0  0  0
  -22.3735    7.4576    3.8382 C   0  0  0  0  0  0  0  0  0  0  0  0
  -23.6712    7.1704    3.3176 C   0  0  0  0  0  0  0  0  0  0  0  0
  -24.1357    6.0824    2.4447 C   0  0  0  0  0  0  0  0  0  0  0  0
  -23.5598    4.8161    2.5129 C   0  0  0  0  0  0  0  0  0  0  0  0
  -24.0294    3.7837    1.7151 C   0  0  0  0  0  0  0  0  0  0  0  0
  -25.6074    2.8444    0.0143 C   0  0  0  0  0  0  0  0  0  0  0  0
  -25.7098    1.1609   -2.9487 C   0  0  0  0  0  0  0  0  0  0  0  0
  -26.4525   -1.0295   -3.4905 C   0  0  0  0  0  0  0  0  0  0  0  0
  -25.2553   -1.3849   -4.0135 C   0  0  0  0  0  0  0  0  0  0  0  0
  -22.2321    1.4536   -2.8441 C   0  0  0  0  0  0  0  0  0  0  0  0
  -25.1673    6.2925    1.5320 C   0  0  0  0  0  0  0  0  0  0  0  0
  -25.8202   10.3869    4.6277 C   0  0  0  0  0  0  0  0  0  0  0  0
  -20.0574    7.3804    4.0736 O   0  0  0  0  0  0  0  0  0  0  0  0
  -21.0606    6.8543    3.5771 C   0  0  0  0  0  0  0  0  0  0  0  0
  -25.0815    3.9915    0.8324 C   0  0  0  0  0  0  0  0  0  0  0  0
  -25.3304    2.9911   -1.4072 N   0  0  0  0  0  0  0  0  0  0  0  0
  -26.1133    2.4659   -2.3487 C   0  0  0  0  0  0  0  0  0  0  0  0
  -26.7277    0.2021   -2.9499 C   0  0  0  0  0  0  0  0  0  0  0  0
  -27.4517   -1.9552   -3.5257 F   0  0  0  0  0  0  0  0  0  0  0  0
  -24.2383   -0.4506   -4.0134 C   0  0  0  0  0  0  0  0  0  0  0  0
  -24.4619    0.8203   -3.4866 C   0  0  0  0  0  0  0  0  0  0  0  0
  -23.4987    1.7921   -3.4399 O   0  0  0  0  0  0  0  0  0  0  0  0
  -27.1296    3.0480   -2.7355 O   0  0  0  0  0  0  0  0  0  0  0  0
  -25.6215    5.2604    0.7375 C   0  0  0  0  0  0  0  0  0  0  0  0
  -24.5724    8.0269    3.8079 N   0  0  0  0  0  0  0  0  0  0  0  0
  -23.8739    8.8544    4.6675 N   0  0  0  0  0  0  0  0  0  0  0  0
  -24.5588    9.9431    5.3649 C   0  0  2  0  0  0  0  0  0  0  0  0
  -24.8514    9.5289    6.7865 C   0  0  1  0  0  0  0  0  0  0  0  0
  -23.7576    9.5945    7.5350 F   0  0  0  0  0  0  0  0  0  0  0  0
  -25.7540   10.3378    7.3493 F   0  0  0  0  0  0  0  0  0  0  0  0
  -25.2934    8.2788    6.8895 F   0  0  0  0  0  0  0  0  0  0  0  0
  -22.5680    8.5305    4.7172 C   0  0  0  0  0  0  0  0  0  0  0  0
  -21.6230    9.2354    5.4114 N   0  0  0  0  0  0  0  0  0  0  0  0
  2  3  1  0
  3  4  1  0
  4  5  2  0
  5  6  1  0
  9 10  2  0
  4 12  1  0
  1 15  1  0
  2 15  1  0
 14 15  2  0
  7 16  1  0
  6 16  2  0
  7 17  1  0
  8 18  1  0
 17 18  1  0
  9 19  1  0
  8 19  2  0
  9 20  1  0
 10 21  1  0
 21 22  2  0
  8 22  1  0
 22 23  1  0
 11 23  1  0
 18 24  2  0
 12 25  2  0
 16 25  1  0
  3 26  2  0
 26 27  1  0
 28 13  1  6
 27 28  1  0
 28 29  1  0
 29 30  1  1
 29 31  1  0
 29 32  1  0
 27 33  1  0
  2 33  2  0
 33 34  1  0
M  END
