7T3E_SLB_A_301
     RDKit          3D

 21 21  0  0  0  0  0  0  0  0999 V2000
   21.9709  -40.0241  -28.3811 C   0  0  0  0  0  0  0  0  0  0  0  0
   21.5241  -38.6055  -28.4441 C   0  0  1  0  0  0  0  0  0  0  0  0
   22.7000  -37.7921  -28.9158 C   0  0  0  0  0  0  0  0  0  0  0  0
   22.4818  -36.3007  -28.6978 C   0  0  1  0  0  0  0  0  0  0  0  0
   22.1539  -36.1905  -27.2167 C   0  0  2  0  0  0  0  0  0  0  0  0
   20.8601  -36.8966  -27.0224 C   0  0  2  0  0  0  0  0  0  0  0  0
   20.2189  -36.6528  -25.6907 C   0  0  1  0  0  0  0  0  0  0  0  0
   18.9891  -37.5122  -25.5552 C   0  0  1  0  0  0  0  0  0  0  0  0
   18.1767  -37.1496  -24.3355 C   0  0  0  0  0  0  0  0  0  0  0  0
   23.2116  -34.3234  -25.8845 C   0  0  0  0  0  0  0  0  0  0  0  0
   22.9383  -34.3057  -24.4244 C   0  0  0  0  0  0  0  0  0  0  0  0
   22.1833  -34.8384  -26.7380 N   0  0  0  0  0  0  0  0  0  0  0  0
   22.4824  -40.5104  -27.3194 O   0  0  0  0  0  0  0  0  0  0  0  0
   21.8442  -40.8573  -29.4732 O   0  0  0  0  0  0  0  0  0  0  0  0
   20.4922  -38.5038  -29.3766 O   0  0  0  0  0  0  0  0  0  0  0  0
   23.6710  -35.6584  -28.9688 O   0  0  0  0  0  0  0  0  0  0  0  0
   21.0833  -38.2526  -27.1800 O   0  0  0  0  0  0  0  0  0  0  0  0
   21.0582  -36.8685  -24.6174 O   0  0  0  0  0  0  0  0  0  0  0  0
   18.1597  -37.4826  -26.6613 O   0  0  0  0  0  0  0  0  0  0  0  0
   18.9815  -36.8619  -23.2227 O   0  0  0  0  0  0  0  0  0  0  0  0
   24.3055  -33.9006  -26.3419 O   0  0  0  0  0  0  0  0  0  0  0  0
  1  2  1  0
  2  3  1  0
  3  4  1  0
  4  5  1  0
  5  6  1  0
  6  7  1  0
  7  8  1  0
  8  9  1  0
 10 11  1  0
  5 12  1  6
 10 12  1  0
  1 13  2  0
  1 14  1  0
  2 15  1  6
  4 16  1  1
  2 17  1  0
  6 17  1  1
  7 18  1  1
  8 19  1  6
  9 20  1  0
 10 21  2  0
M  END
$$$$
