7ZCC_OGA_D_402
     RDKit          3D

 10  9  0  0  0  0  0  0  0  0999 V2000
   29.3685   21.5170   23.6159 C   0  0  0  0  0  0  0  0  0  0  0  0
   29.4213   21.5559   25.0873 C   0  0  0  0  0  0  0  0  0  0  0  0
   29.4198   20.3515   27.2283 C   0  0  0  0  0  0  0  0  0  0  0  0
   29.2069   19.0422   27.8662 C   0  0  0  0  0  0  0  0  0  0  0  0
   29.2552   20.4376   22.9771 O   0  0  0  0  0  0  0  0  0  0  0  0
   29.4425   22.6857   22.8669 O   0  0  0  0  0  0  0  0  0  0  0  0
   29.5335   22.6640   25.6641 O   0  0  0  0  0  0  0  0  0  0  0  0
   29.3069   18.8222   29.2396 O   0  0  0  0  0  0  0  0  0  0  0  0
   29.3414   20.3226   25.7785 N   0  0  0  0  0  0  0  0  0  0  0  0
   28.9145   18.0645   27.0986 O   0  0  0  0  0  0  0  0  0  0  0  0
  1  2  1  0
  3  4  1  0
  1  5  2  0
  1  6  1  0
  2  7  2  0
  4  8  1  0
  2  9  1  0
  3  9  1  1
  4 10  2  0
M  END
$$$$
