8BN6_R53_A_303
     RDKit          3D

 45 48  0  0  0  0  0  0  0  0999 V2000
    2.3653   21.8716    1.4988 C   0  0  0  0  0  0  0  0  0  0  0  0
   -4.6398   26.6898    1.2299 C   0  0  0  0  0  0  0  0  0  0  0  0
    0.7984   23.8337    1.8067 C   0  0  0  0  0  0  0  0  0  0  0  0
   -0.9210   24.6449    0.6281 C   0  0  0  0  0  0  0  0  0  0  0  0
   -0.4042   23.5201   -2.0584 C   0  0  2  0  0  0  0  0  0  0  0  0
   -1.6984   24.9788   -0.4867 C   0  0  0  0  0  0  0  0  0  0  0  0
   -1.4638   25.7505   -2.8363 C   0  0  2  0  0  0  0  0  0  0  0  0
   -0.9886   25.3135   -4.2194 C   0  0  2  0  0  0  0  0  0  0  0  0
    0.0333   23.3789   -3.5252 C   0  0  1  0  0  0  0  0  0  0  0  0
   -2.9197   25.6508   -0.2770 C   0  0  0  0  0  0  0  0  0  0  0  0
   -3.3571   25.9786    1.0306 C   0  0  0  0  0  0  0  0  0  0  0  0
    4.4837   21.5836    2.8077 N   0  0  0  0  0  0  0  0  0  0  0  0
    2.0349   23.1540    2.0625 N   0  0  0  0  0  0  0  0  0  0  0  0
    3.5123   21.0867    2.0112 C   0  0  0  0  0  0  0  0  0  0  0  0
    0.2801   24.0143    0.5685 N   0  0  0  0  0  0  0  0  0  0  0  0
    6.5189   20.6850    3.9727 C   0  0  1  0  0  0  0  0  0  0  0  0
    5.3239   20.5663    3.0855 C   0  0  0  0  0  0  0  0  0  0  0  0
    1.6588   21.3896    0.5713 O   0  0  0  0  0  0  0  0  0  0  0  0
   -1.2322   24.7150   -1.8195 N   0  0  0  0  0  0  0  0  0  0  0  0
    0.2474   24.6411   -4.1221 O   0  0  0  0  0  0  0  0  0  0  0  0
   -4.7391   28.0519    0.9534 O   0  0  0  0  0  0  0  0  0  0  0  0
   -5.6534   26.0710    1.6552 O   0  0  0  0  0  0  0  0  0  0  0  0
   -2.5509   25.6331    2.1365 C   0  0  0  0  0  0  0  0  0  0  0  0
   -1.3484   24.9713    1.9040 C   0  0  0  0  0  0  0  0  0  0  0  0
   -0.2017   24.4599    3.0217 S   0  0  0  0  0  0  0  0  0  0  0  0
    3.7482   19.7374    1.7738 C   0  0  0  0  0  0  0  0  0  0  0  0
    2.7401   18.6091    0.8747 Cl  0  0  0  0  0  0  0  0  0  0  0  0
    4.9009   19.4119    2.4582 C   0  0  0  0  0  0  0  0  0  0  0  0
    5.6363   17.8179    2.5724 Cl  0  0  0  0  0  0  0  0  0  0  0  0
    0.5049   23.5687   -1.4193 H   0  0  0  0  0  0  0  0  0  0  0  0
   -0.9771   22.6097   -1.7665 H   0  0  0  0  0  0  0  0  0  0  0  0
   -2.5455   25.9910   -2.8918 H   0  0  0  0  0  0  0  0  0  0  0  0
   -0.9205   26.6725   -2.5392 H   0  0  0  0  0  0  0  0  0  0  0  0
   -0.8529   26.2174   -4.8532 H   0  0  0  0  0  0  0  0  0  0  0  0
   -1.7653   24.6885   -4.7207 H   0  0  0  0  0  0  0  0  0  0  0  0
    0.9901   22.8090   -3.5572 H   0  0  0  0  0  0  0  0  0  0  0  0
   -0.7060   22.7729   -4.1037 H   0  0  0  0  0  0  0  0  0  0  0  0
   -3.5196   25.9210   -1.1375 H   0  0  0  0  0  0  0  0  0  0  0  0
    4.5890   22.5683    3.1408 H   0  0  0  0  0  0  0  0  0  0  0  0
    2.6881   23.6024    2.7417 H   0  0  0  0  0  0  0  0  0  0  0  0
    6.2123   21.1177    4.9513 H   0  0  0  0  0  0  0  0  0  0  0  0
    6.9781   19.6848    4.1420 H   0  0  0  0  0  0  0  0  0  0  0  0
    7.2645   21.3583    3.4948 H   0  0  0  0  0  0  0  0  0  0  0  0
   -4.7950   28.7335    1.7020 H   0  0  0  0  0  0  0  0  0  0  0  0
   -2.8440   25.8792    3.1498 H   0  0  0  0  0  0  0  0  0  0  0  0
  4  6  1  0
  7  8  1  0
  5  9  1  0
  6 10  2  0
 10 11  1  0
  2 11  1  0
  3 13  1  0
  1 13  1  0
  1 14  1  0
 12 14  1  0
  4 15  1  0
  3 15  2  0
 12 17  1  0
 16 17  1  0
  1 18  2  0
  5 19  1  0
  7 19  1  0
  6 19  1  0
  9 20  1  0
  8 20  1  0
  2 21  1  0
  2 22  2  0
 11 23  2  0
  4 24  2  0
 23 24  1  0
  3 25  1  0
 24 25  1  0
 14 26  2  0
 26 27  1  0
 26 28  1  0
 17 28  2  0
 28 29  1  0
  5 30  1  1
  5 31  1  0
  7 32  1  6
  7 33  1  0
  8 34  1  6
  8 35  1  0
  9 36  1  1
  9 37  1  0
 10 38  1  0
 12 39  1  0
 13 40  1  0
 16 41  1  1
 16 42  1  0
 16 43  1  0
 21 44  1  0
 23 45  1  0
M  END
