6ZT2_QPK_A_303
     RDKit          3D

 13 13  0  0  0  0  0  0  0  0999 V2000
   -8.7286   33.0011  -13.6040 C   0  0  0  0  0  0  0  0  0  0  0  0
   -9.2480   32.3588  -12.4747 C   0  0  0  0  0  0  0  0  0  0  0  0
  -10.3990   32.8607  -11.8512 C   0  0  0  0  0  0  0  0  0  0  0  0
  -11.0298   34.0083  -12.3609 C   0  0  0  0  0  0  0  0  0  0  0  0
  -10.5038   34.6457  -13.4920 C   0  0  0  0  0  0  0  0  0  0  0  0
   -9.3557   34.1424  -14.1114 C   0  0  0  0  0  0  0  0  0  0  0  0
  -12.1753   34.5236  -11.7557 O   0  0  0  0  0  0  0  0  0  0  0  0
  -11.1062   35.7539  -13.9908 F   0  0  0  0  0  0  0  0  0  0  0  0
  -10.9014   32.2364  -10.7557 F   0  0  0  0  0  0  0  0  0  0  0  0
   -8.4515   30.9258  -11.8467 Cl  0  0  0  0  0  0  0  0  0  0  0  0
   -7.8401   32.6171  -14.0888 H   0  0  0  0  0  0  0  0  0  0  0  0
   -8.9508   34.6365  -14.9852 H   0  0  0  0  0  0  0  0  0  0  0  0
  -12.5877   34.0931  -10.9367 H   0  0  0  0  0  0  0  0  0  0  0  0
  1  2  2  0
  2  3  1  0
  3  4  2  0
  4  5  1  0
  1  6  1  0
  5  6  2  0
  4  7  1  0
  5  8  1  0
  3  9  1  0
  2 10  1  0
  1 11  1  0
  6 12  1  0
  7 13  1  0
M  END
