1YWR_LI9_A_361
     RDKit          3D

 64 68  0  0  0  0  0  0  0  0999 V2000
    3.3704   -0.5025   18.7327 C   0  0  0  0  0  0  0  0  0  0  0  0
    4.5034   -1.5534   16.4027 C   0  0  0  0  0  0  0  0  0  0  0  0
    3.2816   -1.8828   18.4792 C   0  0  0  0  0  0  0  0  0  0  0  0
    4.0311    0.3395   17.8340 C   0  0  0  0  0  0  0  0  0  0  0  0
    4.5978   -0.1851   16.6695 C   0  0  0  0  0  0  0  0  0  0  0  0
    3.8466   -2.3995   17.3012 C   0  0  0  0  0  0  0  0  0  0  0  0
    2.5913   -2.7843   19.4310 C   0  0  0  0  0  0  0  0  0  0  0  0
    5.2362    0.6333   15.7973 F   0  0  0  0  0  0  0  0  0  0  0  0
    1.4461   -4.5364   20.2539 N   0  0  0  0  0  0  0  0  0  0  0  0
    0.7898   -5.8570   20.4216 C   0  0  2  0  0  0  0  0  0  0  0  0
    1.0774   -3.7825   22.6030 C   0  0  1  0  0  0  0  0  0  0  0  0
    2.2475   -2.5527   20.7576 C   0  0  0  0  0  0  0  0  0  0  0  0
    2.5786   -1.3445   21.5448 C   0  0  0  0  0  0  0  0  0  0  0  0
    2.1449   -4.6086   18.0460 O   0  0  0  0  0  0  0  0  0  0  0  0
    2.0739   -4.0361   19.1621 C   0  0  0  0  0  0  0  0  0  0  0  0
    1.5803   -3.6357   21.2320 N   0  0  0  0  0  0  0  0  0  0  0  0
   -0.5255   -6.6645   18.3030 C   0  0  2  0  0  0  0  0  0  0  0  0
    1.7270   -7.4141   18.6380 C   0  0  1  0  0  0  0  0  0  0  0  0
    1.7697   -7.0067   20.1065 C   0  0  1  0  0  0  0  0  0  0  0  0
   -0.5823   -6.0053   19.6990 C   0  0  2  0  0  0  0  0  0  0  0  0
    0.3662   -7.8277   18.2899 N   0  0  0  0  0  0  0  0  0  0  0  0
    1.8066   -0.9961   22.6089 N   0  0  0  0  0  0  0  0  0  0  0  0
    3.8837    0.6342   21.9120 C   0  0  0  0  0  0  0  0  0  0  0  0
    1.2123    0.5259   24.4275 N   0  0  0  0  0  0  0  0  0  0  0  0
    3.6537   -0.5262   21.1798 C   0  0  0  0  0  0  0  0  0  0  0  0
    2.0443    0.1401   23.3190 C   0  0  0  0  0  0  0  0  0  0  0  0
    3.0772    0.9470   22.9591 N   0  0  0  0  0  0  0  0  0  0  0  0
    1.5692    0.5555   25.8568 C   0  0  2  0  0  0  0  0  0  0  0  0
    1.8517    1.9704   26.3214 C   0  0  0  0  0  0  0  0  0  0  0  0
    2.7066   -0.4042   26.2319 C   0  0  1  0  0  0  0  0  0  0  0  0
    2.3489    4.5933   27.2135 C   0  0  0  0  0  0  0  0  0  0  0  0
    3.1679    2.4162   26.5339 C   0  0  0  0  0  0  0  0  0  0  0  0
    0.7857    2.8611   26.5611 C   0  0  0  0  0  0  0  0  0  0  0  0
    1.0355    4.1665   26.9990 C   0  0  0  0  0  0  0  0  0  0  0  0
    3.4143    3.7172   26.9823 C   0  0  0  0  0  0  0  0  0  0  0  0
    2.9198   -0.0736   19.6182 H   0  0  0  0  0  0  0  0  0  0  0  0
    4.9405   -1.9608   15.5000 H   0  0  0  0  0  0  0  0  0  0  0  0
    4.0991    1.3992   18.0407 H   0  0  0  0  0  0  0  0  0  0  0  0
    3.7962   -3.4596   17.0856 H   0  0  0  0  0  0  0  0  0  0  0  0
    0.5358   -5.9504   21.5018 H   0  0  0  0  0  0  0  0  0  0  0  0
    1.9240   -3.8858   23.3138 H   0  0  0  0  0  0  0  0  0  0  0  0
    0.4579   -2.9007   22.8698 H   0  0  0  0  0  0  0  0  0  0  0  0
    0.4664   -4.7005   22.7183 H   0  0  0  0  0  0  0  0  0  0  0  0
   -0.2255   -5.9466   17.5133 H   0  0  0  0  0  0  0  0  0  0  0  0
   -1.5520   -6.9991   18.0349 H   0  0  0  0  0  0  0  0  0  0  0  0
    2.0746   -6.5761   17.9883 H   0  0  0  0  0  0  0  0  0  0  0  0
    2.4193   -8.2709   18.4888 H   0  0  0  0  0  0  0  0  0  0  0  0
    2.8091   -6.7154   20.3658 H   0  0  0  0  0  0  0  0  0  0  0  0
    1.5054   -7.8906   20.7268 H   0  0  0  0  0  0  0  0  0  0  0  0
   -1.0946   -5.0215   19.6328 H   0  0  0  0  0  0  0  0  0  0  0  0
   -1.2326   -6.6525   20.3297 H   0  0  0  0  0  0  0  0  0  0  0  0
    0.3915   -8.1975   17.3097 H   0  0  0  0  0  0  0  0  0  0  0  0
    4.6975    1.2923   21.6420 H   0  0  0  0  0  0  0  0  0  0  0  0
    0.2629    0.8906   24.1882 H   0  0  0  0  0  0  0  0  0  0  0  0
    4.2941   -0.7790   20.3435 H   0  0  0  0  0  0  0  0  0  0  0  0
    0.6762    0.1796   26.4047 H   0  0  0  0  0  0  0  0  0  0  0  0
    2.7548   -0.5047   27.3390 H   0  0  0  0  0  0  0  0  0  0  0  0
    2.5233   -1.4118   25.8016 H   0  0  0  0  0  0  0  0  0  0  0  0
    3.6912   -0.0291   25.8860 H   0  0  0  0  0  0  0  0  0  0  0  0
    2.5420    5.6039   27.5502 H   0  0  0  0  0  0  0  0  0  0  0  0
    4.0015    1.7653   26.3406 H   0  0  0  0  0  0  0  0  0  0  0  0
   -0.2388    2.5434   26.4102 H   0  0  0  0  0  0  0  0  0  0  0  0
    0.2096    4.8475   27.1744 H   0  0  0  0  0  0  0  0  0  0  0  0
    4.4324    4.0500   27.1401 H   0  0  0  0  0  0  0  0  0  0  0  0
  1  3  2  0
  1  4  1  0
  2  5  1  0
  4  5  2  0
  2  6  2  0
  3  6  1  0
  3  7  1  0
  5  8  1  0
  9 10  1  0
  7 12  2  0
 12 13  1  0
  7 15  1  0
  9 15  1  0
 14 15  2  0
  9 16  1  0
 11 16  1  0
 12 16  1  0
 10 19  1  0
 18 19  1  0
 10 20  1  0
 17 20  1  0
 17 21  1  0
 18 21  1  0
 13 22  2  0
 13 25  1  0
 23 25  2  0
 22 26  1  0
 24 26  1  0
 23 27  1  0
 26 27  2  0
 24 28  1  0
 28 29  1  0
 28 30  1  0
 29 32  1  0
 29 33  2  0
 31 34  2  0
 33 34  1  0
 31 35  1  0
 32 35  2  0
  1 36  1  0
  2 37  1  0
  4 38  1  0
  6 39  1  0
 10 40  1  1
 11 41  1  1
 11 42  1  0
 11 43  1  0
 17 44  1  6
 17 45  1  0
 18 46  1  6
 18 47  1  0
 19 48  1  1
 19 49  1  0
 20 50  1  6
 20 51  1  0
 21 52  1  0
 23 53  1  0
 24 54  1  0
 25 55  1  0
 28 56  1  1
 30 57  1  1
 30 58  1  0
 30 59  1  0
 31 60  1  0
 32 61  1  0
 33 62  1  0
 34 63  1  0
 35 64  1  0
M  END
