1YWR_LI9_A_361
     RDKit          3D

 35 39  0  0  0  0  0  0  0  0999 V2000
   -5.4769    1.6269   18.2429 C   0  0  0  0  0  0  0  0  0  0  0  0
   -3.2527    1.7545   19.9052 C   0  0  0  0  0  0  0  0  0  0  0  0
   -5.1889    0.5458   19.0981 C   0  0  0  0  0  0  0  0  0  0  0  0
   -4.6781    2.7715   18.2006 C   0  0  0  0  0  0  0  0  0  0  0  0
   -3.5734    2.8006   19.0457 C   0  0  0  0  0  0  0  0  0  0  0  0
   -4.0654    0.6115   19.9359 C   0  0  0  0  0  0  0  0  0  0  0  0
   -6.0919   -0.6109   19.0664 C   0  0  0  0  0  0  0  0  0  0  0  0
   -2.8076    3.8861   19.0120 F   0  0  0  0  0  0  0  0  0  0  0  0
   -7.4563   -2.2478   20.0147 N   0  0  0  0  0  0  0  0  0  0  0  0
   -8.1769   -3.1300   20.9263 C   0  0  2  0  0  0  0  0  0  0  0  0
   -8.3307   -3.3867   18.0516 C   0  0  0  0  0  0  0  0  0  0  0  0
   -6.6240   -1.3944   18.1032 C   0  0  0  0  0  0  0  0  0  0  0  0
   -6.4310   -1.3071   16.6520 C   0  0  0  0  0  0  0  0  0  0  0  0
   -6.4191   -0.7653   21.4735 O   0  0  0  0  0  0  0  0  0  0  0  0
   -6.6446   -1.1751   20.3520 C   0  0  0  0  0  0  0  0  0  0  0  0
   -7.4491   -2.3909   18.6209 N   0  0  0  0  0  0  0  0  0  0  0  0
   -7.9898   -5.1212   22.4454 C   0  0  0  0  0  0  0  0  0  0  0  0
   -9.3215   -3.2442   23.1713 C   0  0  0  0  0  0  0  0  0  0  0  0
   -8.7301   -2.3272   22.1077 C   0  0  0  0  0  0  0  0  0  0  0  0
   -7.2742   -4.2776   21.3925 C   0  0  0  0  0  0  0  0  0  0  0  0
   -8.3580   -4.2675   23.5740 N   0  0  0  0  0  0  0  0  0  0  0  0
   -7.2860   -1.9453   15.8388 N   0  0  0  0  0  0  0  0  0  0  0  0
   -5.2290   -0.5148   14.7982 C   0  0  0  0  0  0  0  0  0  0  0  0
   -7.9060   -2.4632   13.6466 N   0  0  0  0  0  0  0  0  0  0  0  0
   -5.3691   -0.5676   16.1636 C   0  0  0  0  0  0  0  0  0  0  0  0
   -7.0770   -1.8409   14.5243 C   0  0  0  0  0  0  0  0  0  0  0  0
   -6.0774   -1.1478   13.9712 N   0  0  0  0  0  0  0  0  0  0  0  0
   -7.7747   -2.4036   12.2219 C   0  0  2  0  0  0  0  0  0  0  0  0
   -9.0697   -2.3368   11.4395 C   0  0  0  0  0  0  0  0  0  0  0  0
   -6.9759   -3.6225   11.7178 C   0  0  0  0  0  0  0  0  0  0  0  0
  -11.4174   -2.1672    9.9342 C   0  0  0  0  0  0  0  0  0  0  0  0
   -9.0768   -1.6399   10.2199 C   0  0  0  0  0  0  0  0  0  0  0  0
  -10.2487   -2.9399   11.8847 C   0  0  0  0  0  0  0  0  0  0  0  0
  -11.4238   -2.8578   11.1370 C   0  0  0  0  0  0  0  0  0  0  0  0
  -10.2518   -1.5642    9.4814 C   0  0  0  0  0  0  0  0  0  0  0  0
  1  3  2  0
  1  4  1  0
  2  5  1  0
  4  5  2  0
  2  6  2  0
  3  6  1  0
  3  7  1  0
  5  8  1  0
 10  9  1  6
  7 12  2  0
 12 13  1  0
  7 15  1  0
  9 15  1  0
 14 15  2  0
  9 16  1  0
 11 16  1  0
 12 16  1  0
 10 19  1  0
 18 19  1  0
 10 20  1  0
 17 20  1  0
 17 21  1  0
 18 21  1  0
 13 22  2  0
 13 25  1  0
 23 25  2  0
 22 26  1  0
 24 26  1  0
 23 27  1  0
 26 27  2  0
 24 28  1  0
 28 29  1  0
 28 30  1  6
 29 32  1  0
 29 33  2  0
 31 34  2  0
 33 34  1  0
 31 35  1  0
 32 35  2  0
M  END
