1T9B_1CS_B_1695
     RDKit          3D

 23 24  0  0  0  0  0  0  0  0999 V2000
   26.8179   17.5283  134.0949 C   0  0  0  0  0  0  0  0  0  0  0  0
   27.9042   17.5889  133.2040 O   0  0  0  0  0  0  0  0  0  0  0  0
   29.1854   17.8209  133.6720 C   0  0  0  0  0  0  0  0  0  0  0  0
   30.2438   17.7121  132.8458 N   0  0  0  0  0  0  0  0  0  0  0  0
   31.5006   17.9400  133.3062 C   0  0  0  0  0  0  0  0  0  0  0  0
   32.6951   17.8257  132.4081 C   0  0  0  0  0  0  0  0  0  0  0  0
   31.6361   18.2732  134.6017 N   0  0  0  0  0  0  0  0  0  0  0  0
   30.6055   18.3904  135.4517 C   0  0  0  0  0  0  0  0  0  0  0  0
   30.7982   18.7465  136.8186 N   0  0  0  0  0  0  0  0  0  0  0  0
   32.1125   18.9774  137.3288 C   0  0  0  0  0  0  0  0  0  0  0  0
   32.6571   18.0086  137.9092 O   0  0  0  0  0  0  0  0  0  0  0  0
   32.6827   20.2519  137.1431 N   0  0  0  0  0  0  0  0  0  0  0  0
   34.2527   20.7388  137.6206 S   0  0  2  0  0  0  0  0  0  0  0  0
   34.3717   22.2505  137.4081 O   0  0  0  0  0  0  0  0  0  0  0  0
   35.2214   20.1268  136.6262 O   0  0  0  0  0  0  0  0  0  0  0  0
   34.6836   20.3308  139.2485 C   0  0  0  0  0  0  0  0  0  0  0  0
   35.6099   19.2930  139.4230 C   0  0  0  0  0  0  0  0  0  0  0  0
   36.0155   18.8841  140.6752 C   0  0  0  0  0  0  0  0  0  0  0  0
   35.5304   19.4756  141.8275 C   0  0  0  0  0  0  0  0  0  0  0  0
   34.6188   20.4971  141.6569 C   0  0  0  0  0  0  0  0  0  0  0  0
   34.2088   20.9105  140.3841 C   0  0  0  0  0  0  0  0  0  0  0  0
   29.3749   18.1588  134.9668 N   0  0  0  0  0  0  0  0  0  0  0  0
   33.0750   22.2006  140.2866 Cl  0  0  0  0  0  0  0  0  0  0  0  0
  1  2  1  0
  2  3  1  0
  3  4  2  0
  4  5  1  0
  5  6  1  0
  5  7  2  0
  7  8  1  0
  8  9  1  0
  9 10  1  0
 10 11  2  0
 10 12  1  0
 13 12  1  6
 13 14  2  0
 13 15  2  0
 13 16  1  0
 16 17  2  0
 17 18  1  0
 18 19  2  0
 19 20  1  0
 16 21  1  0
 20 21  2  0
  3 22  1  0
  8 22  2  0
 21 23  1  0
M  END
$$$$
