1T9B_1CS_B_1695
     RDKit          3D

 23 24  0  0  0  0  0  0  0  0999 V2000
   -8.6395   64.2664  115.3989 C   0  0  0  0  0  0  0  0  0  0  0  0
   -9.6869   64.9842  116.0031 O   0  0  0  0  0  0  0  0  0  0  0  0
   -9.5505   65.4794  117.2879 C   0  0  0  0  0  0  0  0  0  0  0  0
   -8.4622   65.1791  118.0229 N   0  0  0  0  0  0  0  0  0  0  0  0
   -8.3294   65.6655  119.2835 C   0  0  0  0  0  0  0  0  0  0  0  0
   -7.1288   65.3467  120.1222 C   0  0  0  0  0  0  0  0  0  0  0  0
   -9.3172   66.4465  119.7547 N   0  0  0  0  0  0  0  0  0  0  0  0
  -10.4134   66.7655  119.0512 C   0  0  0  0  0  0  0  0  0  0  0  0
  -11.4357   67.5981  119.5934 N   0  0  0  0  0  0  0  0  0  0  0  0
  -12.8108   67.3369  119.3071 C   0  0  0  0  0  0  0  0  0  0  0  0
  -13.0866   67.0825  118.1108 O   0  0  0  0  0  0  0  0  0  0  0  0
  -13.7317   67.3848  120.3718 N   0  0  0  0  0  0  0  0  0  0  0  0
  -15.4321   67.2316  120.2484 S   0  0  2  0  0  0  0  0  0  0  0  0
  -15.9631   68.4165  119.4370 O   0  0  0  0  0  0  0  0  0  0  0  0
  -15.9914   67.4319  121.6444 O   0  0  0  0  0  0  0  0  0  0  0  0
  -15.9859   65.7418  119.5586 C   0  0  0  0  0  0  0  0  0  0  0  0
  -16.6248   65.8133  118.3128 C   0  0  0  0  0  0  0  0  0  0  0  0
  -17.1100   64.6893  117.6795 C   0  0  0  0  0  0  0  0  0  0  0  0
  -16.9926   63.4298  118.2389 C   0  0  0  0  0  0  0  0  0  0  0  0
  -16.3638   63.3583  119.4650 C   0  0  0  0  0  0  0  0  0  0  0  0
  -15.8720   64.5013  120.1059 C   0  0  0  0  0  0  0  0  0  0  0  0
  -10.5161   66.2693  117.8077 N   0  0  0  0  0  0  0  0  0  0  0  0
  -15.0962   64.2962  121.6275 Cl  0  0  0  0  0  0  0  0  0  0  0  0
  1  2  1  0
  2  3  1  0
  3  4  2  0
  4  5  1  0
  5  6  1  0
  5  7  2  0
  7  8  1  0
  8  9  1  0
  9 10  1  0
 10 11  2  0
 10 12  1  0
 13 12  1  1
 13 14  2  0
 13 15  2  0
 13 16  1  0
 16 17  2  0
 17 18  1  0
 18 19  2  0
 19 20  1  0
 16 21  1  0
 20 21  2  0
  3 22  1  0
  8 22  2  0
 21 23  1  0
M  END
$$$$
