1T9B_1CS_B_1695
     RDKit          3D

 23 24  0  0  0  0  0  0  0  0999 V2000
  -14.2043   52.4079  123.9760 C   0  0  0  0  0  0  0  0  0  0  0  0
  -14.6805   53.1853  125.0466 O   0  0  0  0  0  0  0  0  0  0  0  0
  -16.0365   53.4127  125.2020 C   0  0  0  0  0  0  0  0  0  0  0  0
  -16.9297   52.7671  124.4274 N   0  0  0  0  0  0  0  0  0  0  0  0
  -18.2601   52.9909  124.5808 C   0  0  0  0  0  0  0  0  0  0  0  0
  -19.2746   52.2859  123.7322 C   0  0  0  0  0  0  0  0  0  0  0  0
  -18.6365   53.8711  125.5249 N   0  0  0  0  0  0  0  0  0  0  0  0
  -17.7752   54.5309  126.3130 C   0  0  0  0  0  0  0  0  0  0  0  0
  -18.2217   55.4559  127.3017 N   0  0  0  0  0  0  0  0  0  0  0  0
  -18.3480   56.8445  126.9903 C   0  0  0  0  0  0  0  0  0  0  0  0
  -19.3839   57.4121  127.4106 O   0  0  0  0  0  0  0  0  0  0  0  0
  -17.3177   57.4554  126.2492 N   0  0  0  0  0  0  0  0  0  0  0  0
  -17.2959   59.0718  125.6863 S   0  0  2  0  0  0  0  0  0  0  0  0
  -18.6332   59.3583  124.9978 O   0  0  0  0  0  0  0  0  0  0  0  0
  -16.2635   59.1342  124.5764 O   0  0  0  0  0  0  0  0  0  0  0  0
  -16.9837   60.2672  126.9012 C   0  0  0  0  0  0  0  0  0  0  0  0
  -17.9651   61.2486  127.0987 C   0  0  0  0  0  0  0  0  0  0  0  0
  -17.8137   62.2496  128.0340 C   0  0  0  0  0  0  0  0  0  0  0  0
  -16.6852   62.3400  128.8284 C   0  0  0  0  0  0  0  0  0  0  0  0
  -15.7187   61.3745  128.6350 C   0  0  0  0  0  0  0  0  0  0  0  0
  -15.8751   60.3589  127.6845 C   0  0  0  0  0  0  0  0  0  0  0  0
  -16.4662   54.2883  126.1375 N   0  0  0  0  0  0  0  0  0  0  0  0
  -14.6120   59.2009  127.5333 Cl  0  0  0  0  0  0  0  0  0  0  0  0
  1  2  1  0
  2  3  1  0
  3  4  2  0
  4  5  1  0
  5  6  1  0
  5  7  2  0
  7  8  1  0
  8  9  1  0
  9 10  1  0
 10 11  2  0
 10 12  1  0
 13 12  1  1
 13 14  2  0
 13 15  2  0
 13 16  1  0
 16 17  2  0
 17 18  1  0
 18 19  2  0
 19 20  1  0
 16 21  1  0
 20 21  2  0
  3 22  1  0
  8 22  2  0
 21 23  1  0
M  END
$$$$
