1T9B_1CS_B_1695
     RDKit          3D

 23 24  0  0  0  0  0  0  0  0999 V2000
   25.4497   18.8213  131.5855 C   0  0  0  0  0  0  0  0  0  0  0  0
   25.9804   19.0021  132.8750 O   0  0  0  0  0  0  0  0  0  0  0  0
   26.0187   20.2602  133.4497 C   0  0  0  0  0  0  0  0  0  0  0  0
   25.4923   21.3203  132.8066 N   0  0  0  0  0  0  0  0  0  0  0  0
   25.5304   22.5544  133.3715 C   0  0  0  0  0  0  0  0  0  0  0  0
   24.9521   23.7503  132.6773 C   0  0  0  0  0  0  0  0  0  0  0  0
   26.1078   22.6659  134.5806 N   0  0  0  0  0  0  0  0  0  0  0  0
   26.6412   21.6328  135.2487 C   0  0  0  0  0  0  0  0  0  0  0  0
   27.2435   21.7997  136.5300 N   0  0  0  0  0  0  0  0  0  0  0  0
   28.6415   22.0710  136.6438 C   0  0  0  0  0  0  0  0  0  0  0  0
   29.3306   21.1887  137.2083 O   0  0  0  0  0  0  0  0  0  0  0  0
   29.1270   23.2860  136.1222 N   0  0  0  0  0  0  0  0  0  0  0  0
   30.6802   23.9543  136.3885 S   0  0  2  0  0  0  0  0  0  0  0  0
   30.6115   24.8488  137.6293 O   0  0  0  0  0  0  0  0  0  0  0  0
   30.9508   24.9038  135.2365 O   0  0  0  0  0  0  0  0  0  0  0  0
   31.9573   22.7959  136.5597 C   0  0  0  0  0  0  0  0  0  0  0  0
   32.2411   21.9893  135.4488 C   0  0  0  0  0  0  0  0  0  0  0  0
   33.2318   21.0314  135.4805 C   0  0  0  0  0  0  0  0  0  0  0  0
   33.9995   20.8142  136.6103 C   0  0  0  0  0  0  0  0  0  0  0  0
   33.7211   21.6078  137.7042 C   0  0  0  0  0  0  0  0  0  0  0  0
   32.7146   22.5799  137.6692 C   0  0  0  0  0  0  0  0  0  0  0  0
   26.5882   20.4251  134.6642 N   0  0  0  0  0  0  0  0  0  0  0  0
   32.4586   23.5203  139.0867 Cl  0  0  0  0  0  0  0  0  0  0  0  0
  1  2  1  0
  2  3  1  0
  3  4  2  0
  4  5  1  0
  5  6  1  0
  5  7  2  0
  7  8  1  0
  8  9  1  0
  9 10  1  0
 10 11  2  0
 10 12  1  0
 13 12  1  6
 13 14  2  0
 13 15  2  0
 13 16  1  0
 16 17  2  0
 17 18  1  0
 18 19  2  0
 19 20  1  0
 16 21  1  0
 20 21  2  0
  3 22  1  0
  8 22  2  0
 21 23  1  0
M  END
$$$$
