7N4N_0BK_A_401
     RDKit          3D

 55 57  0  0  0  0  0  0  0  0999 V2000
   27.9770  -14.7008  -17.5364 C   0  0  2  0  0  0  0  0  0  0  0  0
   25.8062  -13.6165  -18.0299 C   0  0  0  0  0  0  0  0  0  0  0  0
   24.9991  -12.5739  -17.5717 C   0  0  0  0  0  0  0  0  0  0  0  0
   23.6129  -12.6527  -17.7734 C   0  0  0  0  0  0  0  0  0  0  0  0
   23.8961  -14.7434  -18.8540 C   0  0  0  0  0  0  0  0  0  0  0  0
   20.3301  -10.7994  -16.8959 C   0  0  0  0  0  0  0  0  0  0  0  0
   18.3690   -8.8498  -16.4064 C   0  0  0  0  0  0  0  0  0  0  0  0
   19.3909   -8.5717  -17.3477 C   0  0  0  0  0  0  0  0  0  0  0  0
   20.3544   -9.5796  -17.5945 C   0  0  0  0  0  0  0  0  0  0  0  0
   19.4248   -7.2339  -18.1130 C   0  0  2  0  0  0  0  0  0  0  0  0
   18.4725   -6.0855  -20.1650 C   0  0  2  0  0  0  0  0  0  0  0  0
   19.8393   -6.1360  -20.8956 C   0  0  2  0  0  0  0  0  0  0  0  0
   18.7782   -3.3999  -21.3520 C   0  0  1  0  0  0  0  0  0  0  0  0
   27.1889  -13.5539  -17.8321 O   0  0  0  0  0  0  0  0  0  0  0  0
   23.0972  -13.7378  -18.4126 N   0  0  0  0  0  0  0  0  0  0  0  0
   25.2386  -14.6796  -18.6622 N   0  0  0  0  0  0  0  0  0  0  0  0
   22.7102  -11.5767  -17.3093 C   0  0  0  0  0  0  0  0  0  0  0  0
   23.1851  -10.4442  -17.0211 O   0  0  0  0  0  0  0  0  0  0  0  0
   21.3027  -11.8275  -17.1523 N   0  0  0  0  0  0  0  0  0  0  0  0
   19.3036  -11.0426  -15.9787 C   0  0  0  0  0  0  0  0  0  0  0  0
   18.3336  -10.0736  -15.7346 C   0  0  0  0  0  0  0  0  0  0  0  0
   17.3863   -7.9536  -16.1429 F   0  0  0  0  0  0  0  0  0  0  0  0
   19.2652   -6.0533  -17.1244 C   0  0  2  0  0  0  0  0  0  0  0  0
   20.3501   -5.9907  -16.2659 F   0  0  0  0  0  0  0  0  0  0  0  0
   18.2979   -7.2346  -19.1731 C   0  0  1  0  0  0  0  0  0  0  0  0
   19.7712   -7.1498  -22.0561 C   0  0  2  0  0  0  0  0  0  0  0  0
   20.9656   -6.5512  -19.9476 C   0  0  0  0  0  0  0  0  0  0  0  0
   22.3263   -6.5163  -20.3909 N   0  0  0  0  0  0  0  0  0  0  0  0
   20.7272   -7.0640  -18.7731 N   0  0  0  0  0  0  0  0  0  0  0  0
   20.1753   -4.4870  -21.5676 S   0  0  2  0  0  6  0  0  0  0  0  0
   20.4769   -4.5628  -23.0384 O   0  0  0  0  0  0  0  0  0  0  0  0
   21.3587   -3.8913  -20.8571 O   0  0  0  0  0  0  0  0  0  0  0  0
   27.6418  -15.1561  -16.5806 H   0  0  0  0  0  0  0  0  0  0  0  0
   29.0482  -14.4176  -17.4620 H   0  0  0  0  0  0  0  0  0  0  0  0
   27.8571  -15.4449  -18.3503 H   0  0  0  0  0  0  0  0  0  0  0  0
   25.4479  -11.7264  -17.0689 H   0  0  0  0  0  0  0  0  0  0  0  0
   23.4626  -15.5957  -19.3586 H   0  0  0  0  0  0  0  0  0  0  0  0
   21.1140   -9.4398  -18.3496 H   0  0  0  0  0  0  0  0  0  0  0  0
   17.6373   -6.1170  -20.8988 H   0  0  0  0  0  0  0  0  0  0  0  0
   18.3625   -5.1260  -19.6160 H   0  0  0  0  0  0  0  0  0  0  0  0
   17.9963   -3.9026  -20.7473 H   0  0  0  0  0  0  0  0  0  0  0  0
   19.1049   -2.4796  -20.8255 H   0  0  0  0  0  0  0  0  0  0  0  0
   18.3603   -3.1237  -22.3416 H   0  0  0  0  0  0  0  0  0  0  0  0
   20.9769  -12.8206  -17.1257 H   0  0  0  0  0  0  0  0  0  0  0  0
   19.2586  -11.9854  -15.4478 H   0  0  0  0  0  0  0  0  0  0  0  0
   17.5444  -10.2745  -15.0213 H   0  0  0  0  0  0  0  0  0  0  0  0
   18.3373   -6.1362  -16.5235 H   0  0  0  0  0  0  0  0  0  0  0  0
   19.2144   -5.0895  -17.6735 H   0  0  0  0  0  0  0  0  0  0  0  0
   18.2999   -8.1983  -19.7275 H   0  0  0  0  0  0  0  0  0  0  0  0
   17.3008   -7.1374  -18.6940 H   0  0  0  0  0  0  0  0  0  0  0  0
   19.5238   -8.1655  -21.6827 H   0  0  0  0  0  0  0  0  0  0  0  0
   20.7445   -7.2143  -22.5860 H   0  0  0  0  0  0  0  0  0  0  0  0
   19.0000   -6.8524  -22.7972 H   0  0  0  0  0  0  0  0  0  0  0  0
   22.5877   -6.1954  -21.3470 H   0  0  0  0  0  0  0  0  0  0  0  0
   23.0881   -6.8701  -19.7702 H   0  0  0  0  0  0  0  0  0  0  0  0
  2  3  2  0
  3  4  1  0
  7  8  2  0
  8  9  1  0
  6  9  2  0
 10  8  1  1
 11 12  1  0
  2 14  1  0
  1 14  1  0
  4 15  2  0
  5 15  1  0
  2 16  1  0
  5 16  2  0
  4 17  1  0
 17 18  2  0
  6 19  1  0
 17 19  1  0
  6 20  1  0
  7 21  1  0
 20 21  2  0
  7 22  1  0
 10 23  1  0
 23 24  1  0
 11 25  1  0
 10 25  1  0
 12 26  1  0
 12 27  1  1
 27 28  1  0
 27 29  2  0
 10 29  1  0
 13 30  1  0
 30 12  1  1
 30 31  2  0
 30 32  2  0
  1 33  1  1
  1 34  1  0
  1 35  1  0
  3 36  1  0
  5 37  1  0
  9 38  1  0
 11 39  1  6
 11 40  1  0
 13 41  1  1
 13 42  1  0
 13 43  1  0
 19 44  1  0
 20 45  1  0
 21 46  1  0
 23 47  1  1
 23 48  1  0
 25 49  1  6
 25 50  1  0
 26 51  1  1
 26 52  1  0
 26 53  1  0
 28 54  1  0
 28 55  1  0
M  END
