8FO5_Y4U_A_301
     RDKit          3D

 17 18  0  0  0  0  0  0  0  0999 V2000
   24.9410   -7.8730  -24.1500 O   0  0  0  0  0  0  0  0  0  0  0  0
   23.8210   -2.6260  -25.5180 O   0  0  0  0  0  0  0  0  0  0  0  0
   21.3650   -1.9650  -22.6260 C   0  0  0  0  0  0  0  0  0  0  0  0
   20.0410   -2.1750  -22.2880 C   0  0  0  0  0  0  0  0  0  0  0  0
   19.2190   -2.9090  -23.1120 C   0  0  0  0  0  0  0  0  0  0  0  0
   19.7110   -3.4360  -24.2820 C   0  0  0  0  0  0  0  0  0  0  0  0
   21.0350   -3.2550  -24.6340 C   0  0  0  0  0  0  0  0  0  0  0  0
   24.6290   -3.8010  -22.0150 C   0  0  0  0  0  0  0  0  0  0  0  0
   24.9660   -5.0800  -21.6970 C   0  0  0  0  0  0  0  0  0  0  0  0
   24.7500   -5.8910  -22.8670 C   0  0  0  0  0  0  0  0  0  0  0  0
   24.9930   -7.3300  -23.0180 C   0  0  0  0  0  0  0  0  0  0  0  0
   25.4300   -8.1130  -21.8240 C   0  0  0  0  0  0  0  0  0  0  0  0
   24.3100   -5.0380  -23.8540 C   0  0  0  0  0  0  0  0  0  0  0  0
   23.5750   -2.4240  -24.1310 S   0  0  0  0  0  0  0  0  0  0  0  0
   24.0910   -1.2730  -23.4510 O   0  0  0  0  0  0  0  0  0  0  0  0
   24.2190   -3.7660  -23.3380 N   0  0  0  0  0  0  0  0  0  0  0  0
   21.8570   -2.5260  -23.7940 C   0  0  0  0  0  0  0  0  0  0  0  0
  3  4  2  0
  4  5  1  0
  5  6  2  0
  6  7  1  0
  8  9  2  0
  9 10  1  0
  1 11  2  0
 10 11  1  0
 11 12  1  0
 10 13  2  0
  2 14  2  0
 14 15  2  0
 14 16  1  0
 13 16  1  0
  8 16  1  0
  7 17  2  0
 14 17  1  0
  3 17  1  0
M  END
$$$$
8FO5_Y4U_C_301
     RDKit          3D

 17 18  0  0  0  0  0  0  0  0999 V2000
   33.5570  -33.1230   44.2780 O   0  0  0  0  0  0  0  0  0  0  0  0
   36.3540  -27.0240   43.6550 O   0  0  0  0  0  0  0  0  0  0  0  0
   38.6840  -28.5940   42.7310 C   0  0  0  0  0  0  0  0  0  0  0  0
   39.8600  -29.2240   42.3650 C   0  0  0  0  0  0  0  0  0  0  0  0
   40.4250  -30.1850   43.1850 C   0  0  0  0  0  0  0  0  0  0  0  0
   39.8220  -30.5070   44.3820 C   0  0  0  0  0  0  0  0  0  0  0  0
   38.6450  -29.8890   44.7690 C   0  0  0  0  0  0  0  0  0  0  0  0
   35.0140  -29.2670   42.2080 C   0  0  0  0  0  0  0  0  0  0  0  0
   34.2660  -30.3640   41.8900 C   0  0  0  0  0  0  0  0  0  0  0  0
   34.1500  -31.1750   43.0900 C   0  0  0  0  0  0  0  0  0  0  0  0
   33.5070  -32.4940   43.2080 C   0  0  0  0  0  0  0  0  0  0  0  0
   32.7940  -33.0820   42.0310 C   0  0  0  0  0  0  0  0  0  0  0  0
   34.8420  -30.4900   44.0830 C   0  0  0  0  0  0  0  0  0  0  0  0
   36.4880  -28.2910   44.3110 S   0  0  0  0  0  0  0  0  0  0  0  0
   36.2550  -28.4150   45.7130 O   0  0  0  0  0  0  0  0  0  0  0  0
   35.3870  -29.3420   43.5430 N   0  0  0  0  0  0  0  0  0  0  0  0
   38.0700  -28.9510   43.9250 C   0  0  0  0  0  0  0  0  0  0  0  0
  3  4  2  0
  4  5  1  0
  5  6  2  0
  6  7  1  0
  8  9  2  0
  9 10  1  0
  1 11  2  0
 10 11  1  0
 11 12  1  0
 10 13  2  0
  2 14  2  0
 14 15  2  0
 14 16  1  0
 13 16  1  0
  8 16  1  0
  7 17  2  0
 14 17  1  0
  3 17  1  0
M  END
$$$$
