8FO5_Y4U_C_301
     RDKit          3D

 28 29  0  0  0  0  0  0  0  0999 V2000
   -0.9927    2.7841   -3.2425 O   0  0  0  0  0  0  0  0  0  0  0  0
   -0.5230   -3.3504   -0.3890 O   0  0  0  0  0  0  0  0  0  0  0  0
    0.3129   -1.8781    2.1628 C   0  0  0  0  0  0  0  0  0  0  0  0
    0.5341   -1.4247    3.4672 C   0  0  0  0  0  0  0  0  0  0  0  0
   -0.3348   -0.4920    4.0411 C   0  0  0  0  0  0  0  0  0  0  0  0
   -1.4241   -0.0091    3.3099 C   0  0  0  0  0  0  0  0  0  0  0  0
   -1.6477   -0.4608    2.0054 C   0  0  0  0  0  0  0  0  0  0  0  0
    1.0149   -1.0393   -1.7824 C   0  0  0  0  0  0  0  0  0  0  0  0
    1.3371    0.0277   -2.5976 C   0  0  0  0  0  0  0  0  0  0  0  0
    0.2262    0.8571   -2.6097 C   0  0  0  0  0  0  0  0  0  0  0  0
    0.0833    2.1338   -3.3318 C   0  0  0  0  0  0  0  0  0  0  0  0
    1.1991    2.6720   -4.1715 C   0  0  0  0  0  0  0  0  0  0  0  0
   -0.7276    0.2644   -1.8034 C   0  0  0  0  0  0  0  0  0  0  0  0
   -1.0505   -1.9527   -0.2205 S   0  0  0  0  0  6  0  0  0  0  0  0
   -2.5220   -1.9645   -0.5279 O   0  0  0  0  0  0  0  0  0  0  0  0
   -0.2367   -0.8871   -1.3134 N   0  0  0  0  0  0  0  0  0  0  0  0
   -0.7840   -1.4035    1.4292 C   0  0  0  0  0  0  0  0  0  0  0  0
    0.9973   -2.5939    1.7255 H   0  0  0  0  0  0  0  0  0  0  0  0
    1.3803   -1.7941    4.0319 H   0  0  0  0  0  0  0  0  0  0  0  0
   -0.1621   -0.1409    5.0503 H   0  0  0  0  0  0  0  0  0  0  0  0
   -2.0934    0.7171    3.7529 H   0  0  0  0  0  0  0  0  0  0  0  0
   -2.4893   -0.0736    1.4452 H   0  0  0  0  0  0  0  0  0  0  0  0
    1.6633   -1.8718   -1.5418 H   0  0  0  0  0  0  0  0  0  0  0  0
    2.2754    0.1816   -3.1140 H   0  0  0  0  0  0  0  0  0  0  0  0
    1.4451    1.9480   -4.9763 H   0  0  0  0  0  0  0  0  0  0  0  0
    0.9066    3.6370   -4.6374 H   0  0  0  0  0  0  0  0  0  0  0  0
    2.0964    2.8390   -3.5396 H   0  0  0  0  0  0  0  0  0  0  0  0
   -1.7133    0.6536   -1.5819 H   0  0  0  0  0  0  0  0  0  0  0  0
  3  4  2  0
  4  5  1  0
  5  6  2  0
  6  7  1  0
  8  9  2  0
  9 10  1  0
  1 11  2  0
 10 11  1  0
 11 12  1  0
 10 13  2  0
  2 14  2  0
 14 15  2  0
 14 16  1  0
 13 16  1  0
  8 16  1  0
  7 17  2  0
 14 17  1  0
  3 17  1  0
  3 18  1  0
  4 19  1  0
  5 20  1  0
  6 21  1  0
  7 22  1  0
  8 23  1  0
  9 24  1  0
 12 25  1  0
 12 26  1  0
 12 27  1  0
 13 28  1  0
M  END
