8ACL_LQL_A_401
     RDKit          3D

 31 34  0  0  0  0  0  0  0  0999 V2000
    4.3875    2.3014   17.3928 N   0  0  0  0  0  0  0  0  0  0  0  0
    4.3133   -1.4132   14.8626 N   0  0  0  0  0  0  0  0  0  0  0  0
   12.5152    0.9562   20.1604 C   0  0  0  0  0  0  0  0  0  0  0  0
   13.0047    0.2597   19.1155 C   0  0  0  0  0  0  0  0  0  0  0  0
    6.7010    1.7976   17.9355 C   0  0  1  0  0  0  0  0  0  0  0  0
    5.7467    2.3464   16.8708 C   0  0  0  0  0  0  0  0  0  0  0  0
    4.2544    3.0849   18.6160 C   0  0  0  0  0  0  0  0  0  0  0  0
    7.5331    2.3122   20.1879 C   0  0  0  0  0  0  0  0  0  0  0  0
    9.3984    1.8497   22.1913 C   0  0  0  0  0  0  0  0  0  0  0  0
    7.6306    3.1755   21.2629 C   0  0  0  0  0  0  0  0  0  0  0  0
    3.5950    0.7144   15.7102 C   0  0  0  0  0  0  0  0  0  0  0  0
    3.3841    0.2168   13.3777 C   0  0  0  0  0  0  0  0  0  0  0  0
    3.2215    1.1008   14.4317 C   0  0  0  0  0  0  0  0  0  0  0  0
    9.0304    2.4609   18.0860 N   0  0  0  0  0  0  0  0  0  0  0  0
    8.1019    1.8584   17.3350 C   0  0  0  0  0  0  0  0  0  0  0  0
    8.3098    1.4204   16.2064 O   0  0  0  0  0  0  0  0  0  0  0  0
   10.3654    2.6983   17.5964 C   0  0  0  0  0  0  0  0  0  0  0  0
    8.3768    1.1841   20.1206 C   0  0  0  0  0  0  0  0  0  0  0  0
    9.2973    0.9654   21.1327 C   0  0  0  0  0  0  0  0  0  0  0  0
    8.5576    2.9480   22.2627 C   0  0  0  0  0  0  0  0  0  0  0  0
    3.3628    1.5751   16.9144 C   0  0  0  0  0  0  0  0  0  0  0  0
    4.1451   -0.5441   15.8679 C   0  0  0  0  0  0  0  0  0  0  0  0
    3.9193   -1.0251   13.6396 C   0  0  0  0  0  0  0  0  0  0  0  0
   11.3428    1.9007   18.4029 C   0  0  0  0  0  0  0  0  0  0  0  0
   11.5488    1.9147   19.7719 C   0  0  0  0  0  0  0  0  0  0  0  0
    5.1990    2.5562   19.6608 C   0  0  0  0  0  0  0  0  0  0  0  0
    6.5838    2.5613   19.1793 N   0  0  0  0  0  0  0  0  0  0  0  0
    2.2761    1.5622   17.4647 O   0  0  0  0  0  0  0  0  0  0  0  0
   12.3212    0.7448   17.6466 S   0  0  0  0  0  0  0  0  0  0  0  0
   10.3051   -0.4649   21.0621 Cl  0  0  0  0  0  0  0  0  0  0  0  0
   10.5966    1.6439   23.4237 Cl  0  0  0  0  0  0  0  0  0  0  0  0
  3  4  2  0
  1  6  1  0
  5  6  1  0
  1  7  1  0
  8 10  1  0
 12 13  1  0
 11 13  2  0
  5 15  1  6
 14 15  1  0
 15 16  2  0
 14 17  1  0
  8 18  2  0
 18 19  1  0
  9 19  2  0
 10 20  2  0
  9 20  1  0
 11 21  1  0
  1 21  1  0
  2 22  2  0
 11 22  1  0
 12 23  2  0
  2 23  1  0
 17 24  1  0
 24 25  2  0
  3 25  1  0
  7 26  1  0
  5 27  1  0
 26 27  1  0
  8 27  1  0
 21 28  2  0
 24 29  1  0
  4 29  1  0
 19 30  1  0
  9 31  1  0
M  END
