1Y6B_AAX_A_201
     RDKit          3D

 58 62  0  0  0  0  0  0  0  0999 V2000
   -2.2447   25.5385   15.1618 O   0  0  0  0  0  0  0  0  0  0  0  0
   -1.8741   25.7191   16.5111 S   0  0  2  0  0  6  0  0  0  0  0  0
   -2.7454   24.9919   17.3774 O   0  0  0  0  0  0  0  0  0  0  0  0
   -1.8479   27.2931   16.7460 N   0  0  0  0  0  0  0  0  0  0  0  0
   -3.0041   28.0571   16.2774 C   0  0  0  0  0  0  0  0  0  0  0  0
   -2.6234   29.4132   15.6850 C   0  0  1  0  0  0  0  0  0  0  0  0
   -2.7350   29.4966   14.1633 C   0  0  0  0  0  0  0  0  0  0  0  0
   -3.7376   30.2266   15.0472 C   0  0  0  0  0  0  0  0  0  0  0  0
   -0.3916   25.0493   16.7703 C   0  0  0  0  0  0  0  0  0  0  0  0
   -0.3289   23.7664   17.2999 C   0  0  0  0  0  0  0  0  0  0  0  0
    0.8999   23.1341   17.4944 C   0  0  0  0  0  0  0  0  0  0  0  0
    0.8344   25.6846   16.4566 C   0  0  0  0  0  0  0  0  0  0  0  0
    2.0923   25.0760   16.6742 C   0  0  0  0  0  0  0  0  0  0  0  0
    2.1088   23.7927   17.1980 C   0  0  0  0  0  0  0  0  0  0  0  0
    3.3318   23.2121   17.4066 O   0  0  0  0  0  0  0  0  0  0  0  0
    3.5891   21.8009   17.3274 C   0  0  0  0  0  0  0  0  0  0  0  0
    3.3182   25.7159   16.4692 N   0  0  0  0  0  0  0  0  0  0  0  0
    3.4609   26.9603   15.9453 C   0  0  0  0  0  0  0  0  0  0  0  0
    2.7775   28.0092   16.4389 O   0  0  0  0  0  0  0  0  0  0  0  0
    3.0680   29.0284   15.5931 C   0  0  0  0  0  0  0  0  0  0  0  0
    3.9931   28.5868   14.6480 C   0  0  0  0  0  0  0  0  0  0  0  0
    4.2308   27.2598   14.8540 N   0  0  0  0  0  0  0  0  0  0  0  0
    2.5184   30.3463   15.9008 C   0  0  0  0  0  0  0  0  0  0  0  0
    1.8573   31.0912   14.9247 C   0  0  0  0  0  0  0  0  0  0  0  0
    1.3882   32.3704   15.2251 C   0  0  0  0  0  0  0  0  0  0  0  0
    1.6406   32.9366   16.4918 C   0  0  0  0  0  0  0  0  0  0  0  0
    2.3724   32.2044   17.4220 C   0  0  0  0  0  0  0  0  0  0  0  0
    2.8152   30.9287   17.1383 C   0  0  0  0  0  0  0  0  0  0  0  0
    0.6352   33.1291   14.1780 C   0  0  0  0  0  0  0  0  0  0  0  0
   -0.2730   32.4839   13.3217 C   0  0  0  0  0  0  0  0  0  0  0  0
   -0.9346   33.1515   12.3504 N   0  0  0  0  0  0  0  0  0  0  0  0
   -0.7497   34.4669   12.1898 C   0  0  0  0  0  0  0  0  0  0  0  0
    0.1496   35.1605   13.0046 C   0  0  0  0  0  0  0  0  0  0  0  0
    0.8382   34.4976   14.0248 C   0  0  0  0  0  0  0  0  0  0  0  0
   -1.7608   27.4524   17.7497 H   0  0  0  0  0  0  0  0  0  0  0  0
   -3.5082   27.4861   15.5259 H   0  0  0  0  0  0  0  0  0  0  0  0
   -3.6299   28.2426   17.1254 H   0  0  0  0  0  0  0  0  0  0  0  0
   -1.8721   29.6253   16.4167 H   0  0  0  0  0  0  0  0  0  0  0  0
   -2.0117   30.0512   13.6027 H   0  0  0  0  0  0  0  0  0  0  0  0
   -2.8034   28.7840   13.3680 H   0  0  0  0  0  0  0  0  0  0  0  0
   -4.7494   29.8831   15.1037 H   0  0  0  0  0  0  0  0  0  0  0  0
   -4.0755   31.2386   15.1291 H   0  0  0  0  0  0  0  0  0  0  0  0
   -1.2009   23.2755   17.5523 H   0  0  0  0  0  0  0  0  0  0  0  0
    0.9230   22.1696   17.8608 H   0  0  0  0  0  0  0  0  0  0  0  0
    0.8089   26.6334   16.0514 H   0  0  0  0  0  0  0  0  0  0  0  0
    4.6226   21.6146   17.5328 H   0  0  0  0  0  0  0  0  0  0  0  0
    2.9846   21.2872   18.0455 H   0  0  0  0  0  0  0  0  0  0  0  0
    3.3517   21.4495   16.3451 H   0  0  0  0  0  0  0  0  0  0  0  0
    4.1360   25.2296   16.7226 H   0  0  0  0  0  0  0  0  0  0  0  0
    4.4265   29.1682   13.9137 H   0  0  0  0  0  0  0  0  0  0  0  0
    1.7152   30.6969   13.9817 H   0  0  0  0  0  0  0  0  0  0  0  0
    1.2884   33.8781   16.7252 H   0  0  0  0  0  0  0  0  0  0  0  0
    2.5878   32.6231   18.3403 H   0  0  0  0  0  0  0  0  0  0  0  0
    3.3643   30.4048   17.8375 H   0  0  0  0  0  0  0  0  0  0  0  0
   -0.4396   31.4721   13.4376 H   0  0  0  0  0  0  0  0  0  0  0  0
   -1.2747   34.9727   11.4595 H   0  0  0  0  0  0  0  0  0  0  0  0
    0.3064   36.1689   12.8520 H   0  0  0  0  0  0  0  0  0  0  0  0
    1.4810   35.0100   14.6488 H   0  0  0  0  0  0  0  0  0  0  0  0
  1  2  2  0
  2  3  2  0
  2  4  1  6
  4  5  1  0
  5  6  1  0
  6  7  1  0
  6  8  1  0
  7  8  1  0
  2  9  1  0
  9 10  2  0
 10 11  1  0
  9 12  1  0
 12 13  2  0
 11 14  2  0
 13 14  1  0
 14 15  1  0
 15 16  1  0
 13 17  1  0
 17 18  1  0
 18 19  1  0
 19 20  1  0
 20 21  2  0
 18 22  2  0
 21 22  1  0
 20 23  1  0
 23 24  2  0
 24 25  1  0
 25 26  2  0
 26 27  1  0
 23 28  1  0
 27 28  2  0
 25 29  1  0
 29 30  2  0
 30 31  1  0
 31 32  2  0
 32 33  1  0
 29 34  1  0
 33 34  2  0
  4 35  1  0
  5 36  1  0
  5 37  1  0
  6 38  1  6
  7 39  1  0
  7 40  1  0
  8 41  1  0
  8 42  1  0
 10 43  1  0
 11 44  1  0
 12 45  1  0
 16 46  1  0
 16 47  1  0
 16 48  1  0
 17 49  1  0
 21 50  1  0
 24 51  1  0
 26 52  1  0
 27 53  1  0
 28 54  1  0
 30 55  1  0
 32 56  1  0
 33 57  1  0
 34 58  1  0
M  END
