7RH8_UTP_A_301
     RDKit          3D

 29 30  0  0  0  0  0  0  0  0999 V2000
  -24.6390  -58.8850   -8.0510 P   0  0  2  0  0  0  0  0  0  0  0  0
  -24.5130  -57.8730   -9.1610 O   0  0  0  0  0  0  0  0  0  0  0  0
  -23.4200  -59.4420   -7.4630 O   0  0  0  0  0  0  0  0  0  0  0  0
  -25.6030  -60.0470   -8.6140 O   0  0  0  0  0  0  0  0  0  0  0  0
  -25.6210  -58.1140   -6.9080 O   0  0  0  0  0  0  0  0  0  0  0  0
  -25.2380  -61.5560   -9.0650 P   0  0  2  0  0  0  0  0  0  0  0  0
  -24.8530  -62.6040   -8.0530 O   0  0  0  0  0  0  0  0  0  0  0  0
  -24.1040  -61.3980  -10.0150 O   0  0  0  0  0  0  0  0  0  0  0  0
  -26.6940  -61.9450   -9.6980 O   0  0  0  0  0  0  0  0  0  0  0  0
  -27.0420  -63.1290  -10.7310 P   0  0  0  0  0  0  0  0  0  0  0  0
  -28.3050  -62.7170  -11.4510 O   0  0  0  0  0  0  0  0  0  0  0  0
  -25.9110  -63.1250  -11.7300 O   0  0  0  0  0  0  0  0  0  0  0  0
  -27.1810  -64.4100   -9.8830 O   0  0  0  0  0  0  0  0  0  0  0  0
  -26.2560  -58.8660   -5.8920 C   0  0  0  0  0  0  0  0  0  0  0  0
  -27.3460  -57.9690   -5.2470 C   0  0  1  0  0  0  0  0  0  0  0  0
  -26.4380  -56.9180   -4.4580 O   0  0  0  0  0  0  0  0  0  0  0  0
  -27.0410  -55.7820   -4.6440 C   0  0  2  0  0  0  0  0  0  0  0  0
  -27.7120  -55.8660   -6.0160 C   0  0  2  0  0  0  0  0  0  0  0  0
  -28.7920  -55.0120   -6.2460 O   0  0  0  0  0  0  0  0  0  0  0  0
  -28.1020  -57.3270   -6.1590 C   0  0  2  0  0  0  0  0  0  0  0  0
  -29.6440  -57.3010   -6.0220 O   0  0  0  0  0  0  0  0  0  0  0  0
  -26.0270  -54.6960   -4.6040 N   0  0  0  0  0  0  0  0  0  0  0  0
  -25.0130  -54.7300   -5.5260 C   0  0  0  0  0  0  0  0  0  0  0  0
  -26.1810  -53.6900   -3.7330 C   0  0  0  0  0  0  0  0  0  0  0  0
  -27.1110  -53.7300   -2.9430 O   0  0  0  0  0  0  0  0  0  0  0  0
  -25.2860  -52.7030   -3.7290 N   0  0  0  0  0  0  0  0  0  0  0  0
  -24.2670  -52.6930   -4.6130 C   0  0  0  0  0  0  0  0  0  0  0  0
  -23.5110  -51.7550   -4.5520 O   0  0  0  0  0  0  0  0  0  0  0  0
  -24.0860  -53.7200   -5.5120 C   0  0  0  0  0  0  0  0  0  0  0  0
  1  2  2  0
  1  3  1  1
  1  4  1  0
  1  5  1  0
  4  6  1  0
  6  7  1  1
  6  8  2  0
  6  9  1  0
  9 10  1  0
 10 11  1  0
 10 12  2  0
 10 13  1  0
  5 14  1  0
 15 14  1  6
 15 16  1  0
 16 17  1  0
 17 18  1  0
 18 19  1  1
 15 20  1  0
 18 20  1  0
 20 21  1  1
 17 22  1  6
 22 23  1  0
 22 24  1  0
 24 25  2  0
 24 26  1  0
 26 27  1  0
 27 28  2  0
 23 29  2  0
 27 29  1  0
M  END
$$$$
