2BR1_PFP_A_1277
     RDKit          3D

 50 53  0  0  0  0  0  0  0  0999 V2000
   15.9875   -0.4193    8.1295 C   0  0  0  0  0  0  0  0  0  0  0  0
   15.7351    0.3255    9.3090 O   0  0  0  0  0  0  0  0  0  0  0  0
   14.7130   -0.2942   10.0600 C   0  0  0  0  0  0  0  0  0  0  0  0
   14.4127   -1.6666    9.8653 C   0  0  0  0  0  0  0  0  0  0  0  0
   13.3317   -2.2741   10.5996 C   0  0  0  0  0  0  0  0  0  0  0  0
   13.9400    0.4699   10.9454 C   0  0  0  0  0  0  0  0  0  0  0  0
   12.8803   -0.1283   11.6725 C   0  0  0  0  0  0  0  0  0  0  0  0
   12.5899   -1.5042   11.5194 C   0  0  0  0  0  0  0  0  0  0  0  0
   11.4096   -2.0973   12.2381 C   0  0  0  0  0  0  0  0  0  0  0  0
   10.4160   -1.4207   12.8136 C   0  0  0  0  0  0  0  0  0  0  0  0
   10.0170   -0.0877   12.7736 C   0  0  0  0  0  0  0  0  0  0  0  0
   10.7369    0.8172   12.1282 N   0  0  0  0  0  0  0  0  0  0  0  0
   10.2249    2.2089   11.9920 C   0  0  0  0  0  0  0  0  0  0  0  0
    9.0071    2.6989   12.8745 C   0  0  0  0  0  0  0  0  0  0  0  0
    8.3562    1.7681   13.8336 O   0  0  0  0  0  0  0  0  0  0  0  0
    8.9008    0.2857   13.4147 N   0  0  0  0  0  0  0  0  0  0  0  0
    8.1593   -0.6168   14.0590 C   0  0  0  0  0  0  0  0  0  0  0  0
    8.5240   -1.9201   14.0819 N   0  0  0  0  0  0  0  0  0  0  0  0
    9.6393   -2.3263   13.4654 C   0  0  0  0  0  0  0  0  0  0  0  0
   10.1611   -3.4927   13.3349 O   0  0  0  0  0  0  0  0  0  0  0  0
   11.2561   -3.4169   12.6600 C   0  0  0  0  0  0  0  0  0  0  0  0
   12.0532   -4.4898   12.3451 C   0  0  0  0  0  0  0  0  0  0  0  0
   13.0668   -4.8705   13.2347 C   0  0  0  0  0  0  0  0  0  0  0  0
   13.9026   -5.9254   12.9269 C   0  0  0  0  0  0  0  0  0  0  0  0
   13.7622   -6.5918   11.7299 C   0  0  0  0  0  0  0  0  0  0  0  0
   14.5874   -7.6270   11.4334 O   0  0  0  0  0  0  0  0  0  0  0  0
   16.0430   -7.4305   11.4552 C   0  0  0  0  0  0  0  0  0  0  0  0
   12.7665   -6.1993   10.8201 C   0  0  0  0  0  0  0  0  0  0  0  0
   11.9278   -5.1311   11.1277 C   0  0  0  0  0  0  0  0  0  0  0  0
   16.7628    0.0566    7.5662 H   0  0  0  0  0  0  0  0  0  0  0  0
   15.0958   -0.4665    7.5398 H   0  0  0  0  0  0  0  0  0  0  0  0
   16.2942   -1.4102    8.3921 H   0  0  0  0  0  0  0  0  0  0  0  0
   14.9665   -2.2284    9.1999 H   0  0  0  0  0  0  0  0  0  0  0  0
   13.1012   -3.2692   10.4528 H   0  0  0  0  0  0  0  0  0  0  0  0
   14.1437    1.4741   11.0687 H   0  0  0  0  0  0  0  0  0  0  0  0
   12.3159    0.4450   12.3189 H   0  0  0  0  0  0  0  0  0  0  0  0
   11.6073    0.5709   11.7398 H   0  0  0  0  0  0  0  0  0  0  0  0
    9.9331    2.3309   10.9698 H   0  0  0  0  0  0  0  0  0  0  0  0
   11.0393    2.8042   12.3485 H   0  0  0  0  0  0  0  0  0  0  0  0
    8.2462    3.0238   12.1961 H   0  0  0  0  0  0  0  0  0  0  0  0
    9.4491    3.4359   13.5120 H   0  0  0  0  0  0  0  0  0  0  0  0
    7.9203    1.0527   13.3446 H   0  0  0  0  0  0  0  0  0  0  0  0
    7.2991   -0.3184   14.5448 H   0  0  0  0  0  0  0  0  0  0  0  0
   13.1890   -4.3603   14.1233 H   0  0  0  0  0  0  0  0  0  0  0  0
   14.6337   -6.2151   13.5951 H   0  0  0  0  0  0  0  0  0  0  0  0
   16.5305   -8.3475   11.1977 H   0  0  0  0  0  0  0  0  0  0  0  0
   16.3473   -7.1278   12.4353 H   0  0  0  0  0  0  0  0  0  0  0  0
   16.3114   -6.6733   10.7485 H   0  0  0  0  0  0  0  0  0  0  0  0
   12.6568   -6.7017    9.9253 H   0  0  0  0  0  0  0  0  0  0  0  0
   11.2154   -4.8197   10.4491 H   0  0  0  0  0  0  0  0  0  0  0  0
  1  2  1  0
  2  3  1  0
  3  4  2  0
  4  5  1  0
  3  6  1  0
  6  7  2  0
  5  8  2  0
  7  8  1  0
  8  9  1  0
  9 10  1  0
 10 11  2  0
 11 12  1  0
 12 13  1  0
 13 14  1  0
 14 15  1  0
 11 16  1  0
 16 17  2  0
 17 18  1  0
 10 19  1  0
 18 19  2  0
 19 20  1  0
  9 21  2  0
 20 21  1  0
 21 22  1  0
 22 23  2  0
 23 24  1  0
 24 25  2  0
 25 26  1  0
 26 27  1  0
 25 28  1  0
 22 29  1  0
 28 29  2  0
  1 30  1  0
  1 31  1  0
  1 32  1  0
  4 33  1  0
  5 34  1  0
  6 35  1  0
  7 36  1  0
 12 37  1  0
 13 38  1  0
 13 39  1  0
 14 40  1  0
 14 41  1  0
 15 42  1  0
 17 43  1  0
 23 44  1  0
 24 45  1  0
 27 46  1  0
 27 47  1  0
 27 48  1  0
 28 49  1  0
 29 50  1  0
M  END
