7WDT_NGS_A_901
     RDKit          3D

 34 34  0  0  0  0  0  0  0  0999 V2000
    1.8756    0.7232    0.0494 C   0  0  2  0  0  0  0  0  0  0  0  0
    1.9703   -0.7822   -0.2852 C   0  0  1  0  0  0  0  0  0  0  0  0
    1.0212   -1.6081    0.6193 C   0  0  2  0  0  0  0  0  0  0  0  0
   -0.1574   -0.7585    1.1510 C   0  0  1  0  0  0  0  0  0  0  0  0
   -0.5074    0.3695    0.1445 C   0  0  1  0  0  0  0  0  0  0  0  0
   -1.7093    1.1971    0.6258 C   0  0  0  0  0  0  0  0  0  0  0  0
    2.3452    0.9513    1.3524 O   0  0  0  0  0  0  0  0  0  0  0  0
    1.7522   -2.1267    1.7021 O   0  0  0  0  0  0  0  0  0  0  0  0
    0.5693    1.2733   -0.0957 O   0  0  0  0  0  0  0  0  0  0  0  0
   -2.8871    0.4280    0.5537 O   0  0  0  0  0  0  0  0  0  0  0  0
    1.6679   -1.0083   -1.7057 N   0  0  0  0  0  0  0  0  0  0  0  0
    2.0070   -2.2307   -2.3755 C   0  0  0  0  0  0  0  0  0  0  0  0
    2.6024   -3.1544   -1.7573 O   0  0  0  0  0  0  0  0  0  0  0  0
    1.6843   -2.4007   -3.8241 C   0  0  0  0  0  0  0  0  0  0  0  0
   -4.1698    1.3431    1.1784 S   0  0  0  0  0  6  0  0  0  0  0  0
   -3.9357    1.6311    2.6353 O   0  0  0  0  0  0  0  0  0  0  0  0
   -5.5912    0.4602    1.0252 O   0  0  0  0  0  0  0  0  0  0  0  0
   -4.3140    2.6367    0.4249 O   0  0  0  0  0  0  0  0  0  0  0  0
   -1.2736   -1.5870    1.3580 O   0  0  0  0  0  0  0  0  0  0  0  0
    2.5473    1.2594   -0.6591 H   0  0  0  0  0  0  0  0  0  0  0  0
    3.0236   -1.0972   -0.1060 H   0  0  0  0  0  0  0  0  0  0  0  0
    0.6116   -2.4566    0.0210 H   0  0  0  0  0  0  0  0  0  0  0  0
    0.1330   -0.2755    2.1147 H   0  0  0  0  0  0  0  0  0  0  0  0
   -0.7924   -0.0945   -0.8263 H   0  0  0  0  0  0  0  0  0  0  0  0
   -1.5143    1.5429    1.6664 H   0  0  0  0  0  0  0  0  0  0  0  0
   -1.8050    2.0869   -0.0365 H   0  0  0  0  0  0  0  0  0  0  0  0
    2.3803    1.9363    1.4709 H   0  0  0  0  0  0  0  0  0  0  0  0
    1.2266   -2.8838    2.0712 H   0  0  0  0  0  0  0  0  0  0  0  0
    1.2504   -0.2377   -2.2762 H   0  0  0  0  0  0  0  0  0  0  0  0
    0.6292   -2.1096   -4.0091 H   0  0  0  0  0  0  0  0  0  0  0  0
    1.8226   -3.4586   -4.1332 H   0  0  0  0  0  0  0  0  0  0  0  0
    2.3535   -1.7550   -4.4298 H   0  0  0  0  0  0  0  0  0  0  0  0
   -5.6133    0.1788    0.0757 H   0  0  0  0  0  0  0  0  0  0  0  0
   -1.1280   -2.0573    2.2200 H   0  0  0  0  0  0  0  0  0  0  0  0
  1  2  1  0
  2  3  1  0
  3  4  1  0
  4  5  1  0
  5  6  1  0
  1  7  1  0
  3  8  1  0
  1  9  1  0
  5  9  1  0
  6 10  1  0
  2 11  1  0
 11 12  1  0
 12 13  2  0
 12 14  1  0
 10 15  1  0
 15 16  2  0
 15 17  1  0
 15 18  2  0
  4 19  1  0
  1 20  1  6
  2 21  1  6
  3 22  1  6
  4 23  1  1
  5 24  1  6
  6 25  1  0
  6 26  1  0
  7 27  1  0
  8 28  1  0
 11 29  1  0
 14 30  1  0
 14 31  1  0
 14 32  1  0
 17 33  1  0
 19 34  1  0
M  END
