1OWE_675_A_1001
     RDKit          3D

 37 39  0  0  0  0  0  0  0  0999 V2000
    6.9777   -0.1219    4.7937 N   0  0  0  0  0  0  0  0  0  0  0  0
    7.0458    1.1707    4.8765 C   0  0  0  0  0  0  0  0  0  0  0  0
    7.9649    1.8688    4.0324 N   0  0  0  0  0  0  0  0  0  0  0  0
    6.1812    1.9213    5.8218 C   0  0  0  0  0  0  0  0  0  0  0  0
    4.8627    2.2628    5.4720 C   0  0  0  0  0  0  0  0  0  0  0  0
    4.0486    2.9644    6.3645 C   0  0  0  0  0  0  0  0  0  0  0  0
    4.5378    3.3384    7.6238 C   0  0  0  0  0  0  0  0  0  0  0  0
    3.7258    4.0439    8.5255 C   0  0  0  0  0  0  0  0  0  0  0  0
    4.2191    4.4219    9.7880 C   0  0  0  0  0  0  0  0  0  0  0  0
    5.5335    4.0681   10.1411 C   0  0  0  0  0  0  0  0  0  0  0  0
    6.3475    3.3661    9.2487 C   0  0  0  0  0  0  0  0  0  0  0  0
    5.8601    2.9972    7.9878 C   0  0  0  0  0  0  0  0  0  0  0  0
    6.6717    2.2914    7.0862 C   0  0  0  0  0  0  0  0  0  0  0  0
    3.3648    5.1630   10.7479 C   0  0  0  0  0  0  0  0  0  0  0  0
    3.7049    5.2256   11.9613 O   0  0  0  0  0  0  0  0  0  0  0  0
    2.1834    5.8514   10.3036 N   0  0  0  0  0  0  0  0  0  0  0  0
    2.0096    7.2767   10.3885 C   0  0  0  0  0  0  0  0  0  0  0  0
    1.0911    7.8059   11.3096 C   0  0  0  0  0  0  0  0  0  0  0  0
    0.9212    9.1892   11.4248 C   0  0  0  0  0  0  0  0  0  0  0  0
    1.6766   10.0560   10.6313 C   0  0  0  0  0  0  0  0  0  0  0  0
    2.6085    9.5410    9.7268 C   0  0  0  0  0  0  0  0  0  0  0  0
    2.7811    8.1582    9.6078 C   0  0  0  0  0  0  0  0  0  0  0  0
    6.3154   -0.6927    5.3647 H   0  0  0  0  0  0  0  0  0  0  0  0
    8.5436    1.3463    3.3375 H   0  0  0  0  0  0  0  0  0  0  0  0
    8.1151    2.8972    4.1298 H   0  0  0  0  0  0  0  0  0  0  0  0
    4.4516    1.9693    4.5144 H   0  0  0  0  0  0  0  0  0  0  0  0
    3.0351    3.2115    6.0709 H   0  0  0  0  0  0  0  0  0  0  0  0
    2.7058    4.2790    8.2467 H   0  0  0  0  0  0  0  0  0  0  0  0
    5.9380    4.3433   11.1073 H   0  0  0  0  0  0  0  0  0  0  0  0
    7.3581    3.1115    9.5455 H   0  0  0  0  0  0  0  0  0  0  0  0
    7.6908    2.0472    7.3627 H   0  0  0  0  0  0  0  0  0  0  0  0
    1.4593    5.3011    9.7889 H   0  0  0  0  0  0  0  0  0  0  0  0
    0.5007    7.1451   11.9319 H   0  0  0  0  0  0  0  0  0  0  0  0
    0.2049    9.5889   12.1310 H   0  0  0  0  0  0  0  0  0  0  0  0
    1.5457   11.1264   10.7229 H   0  0  0  0  0  0  0  0  0  0  0  0
    3.2036   10.2138    9.1230 H   0  0  0  0  0  0  0  0  0  0  0  0
    3.5312    7.7827    8.9245 H   0  0  0  0  0  0  0  0  0  0  0  0
  1  2  2  3
  2  3  1  0
  2  4  1  0
  4  5  4  0
  5  6  4  0
  6  7  4  0
  7  8  4  0
  8  9  4  0
  9 10  4  0
 10 11  4  0
  7 12  4  0
 11 12  4  0
  4 13  4  0
 12 13  4  0
  9 14  1  0
 14 15  2  0
 14 16  1  0
 16 17  1  0
 17 18  4  0
 18 19  4  0
 19 20  4  0
 20 21  4  0
 17 22  4  0
 21 22  4  0
  1 23  1  0
  3 24  1  0
  3 25  1  0
  5 26  1  0
  6 27  1  0
  8 28  1  0
 10 29  1  0
 11 30  1  0
 13 31  1  0
 16 32  1  0
 18 33  1  0
 19 34  1  0
 20 35  1  0
 21 36  1  0
 22 37  1  0
M  END
