7WCF_ACP_A_401
     RDKit          3D

 49 51  0  0  0  0  0  0  0  0999 V2000
   -0.8490    3.3512    3.4064 P   0  0  0  0  0  5  0  0  0  0  0  0
   -0.8607    4.8621    3.3584 O   0  0  0  0  0  0  0  0  0  0  0  0
   -1.0911    2.8465    5.0046 O   0  0  0  0  0  0  0  0  0  0  0  0
    0.6501    2.7844    2.8599 O   0  0  0  0  0  0  0  0  0  0  0  0
   -1.9908    3.2489    0.6364 P   0  0  2  0  0  5  0  0  0  0  0  0
   -0.6178    2.8720    0.1175 O   0  0  0  0  0  0  0  0  0  0  0  0
   -2.1373    4.9345    0.6020 O   0  0  0  0  0  0  0  0  0  0  0  0
   -2.1848    2.6920    2.3611 C   0  0  0  0  0  0  0  0  0  0  0  0
   -2.7219    1.0830   -0.9253 P   0  0  2  0  0  5  0  0  0  0  0  0
   -1.7513    1.3166   -2.0633 O   0  0  0  0  0  0  0  0  0  0  0  0
   -4.0693    0.2477   -1.5175 O   0  0  0  0  0  0  0  0  0  0  0  0
   -3.2416    2.5879   -0.3192 O   0  0  0  0  0  0  0  0  0  0  0  0
   -1.9837    0.1635    0.3080 O   0  0  0  0  0  0  0  0  0  0  0  0
   -1.5109   -1.0400   -0.2485 C   0  0  0  0  0  0  0  0  0  0  0  0
   -0.7889   -1.8495    0.8353 C   0  0  1  0  0  0  0  0  0  0  0  0
   -0.4462   -3.1170    0.3103 O   0  0  0  0  0  0  0  0  0  0  0  0
    0.4852   -1.1407    1.3240 C   0  0  1  0  0  0  0  0  0  0  0  0
    0.5934   -1.1956    2.7286 O   0  0  0  0  0  0  0  0  0  0  0  0
    1.5871   -1.9121    0.6355 C   0  0  1  0  0  0  0  0  0  0  0  0
    2.7464   -2.0115    1.4220 O   0  0  0  0  0  0  0  0  0  0  0  0
    0.9514   -3.2767    0.4239 C   0  0  2  0  0  0  0  0  0  0  0  0
    1.4895   -3.9204   -0.7769 N   0  0  0  0  0  0  0  0  0  0  0  0
    2.5675   -4.7442   -0.8507 C   0  0  0  0  0  0  0  0  0  0  0  0
    2.8842   -5.1089   -2.1243 N   0  0  0  0  0  0  0  0  0  0  0  0
    1.9543   -4.4656   -2.8568 C   0  0  0  0  0  0  0  0  0  0  0  0
    1.7840   -4.4315   -4.2364 C   0  0  0  0  0  0  0  0  0  0  0  0
    2.6297   -5.1704   -5.1180 N   0  0  0  0  0  0  0  0  0  0  0  0
    0.7720   -3.6565   -4.7309 N   0  0  0  0  0  0  0  0  0  0  0  0
   -0.0453   -2.9322   -3.8996 C   0  0  0  0  0  0  0  0  0  0  0  0
    0.1323   -2.9738   -2.5450 N   0  0  0  0  0  0  0  0  0  0  0  0
    1.1309   -3.7502   -2.0571 C   0  0  0  0  0  0  0  0  0  0  0  0
   -1.0421    1.8582    4.9691 H   0  0  0  0  0  0  0  0  0  0  0  0
    0.5730    1.7974    2.8884 H   0  0  0  0  0  0  0  0  0  0  0  0
   -2.0180    5.1794   -0.3515 H   0  0  0  0  0  0  0  0  0  0  0  0
   -2.1640    1.5861    2.4073 H   0  0  0  0  0  0  0  0  0  0  0  0
   -3.1615    3.0479    2.7493 H   0  0  0  0  0  0  0  0  0  0  0  0
   -4.6778    0.1685   -0.7394 H   0  0  0  0  0  0  0  0  0  0  0  0
   -0.7938   -0.8450   -1.0782 H   0  0  0  0  0  0  0  0  0  0  0  0
   -2.3620   -1.6488   -0.6304 H   0  0  0  0  0  0  0  0  0  0  0  0
   -1.4960   -1.9975    1.6815 H   0  0  0  0  0  0  0  0  0  0  0  0
    0.5234   -0.0721    1.0157 H   0  0  0  0  0  0  0  0  0  0  0  0
    0.5578   -2.1489    3.0067 H   0  0  0  0  0  0  0  0  0  0  0  0
    1.8185   -1.4398   -0.3493 H   0  0  0  0  0  0  0  0  0  0  0  0
    3.1949   -1.1275    1.3704 H   0  0  0  0  0  0  0  0  0  0  0  0
    1.1496   -3.9282    1.3055 H   0  0  0  0  0  0  0  0  0  0  0  0
    3.1331   -5.0683    0.0138 H   0  0  0  0  0  0  0  0  0  0  0  0
    2.4734   -5.1310   -6.1503 H   0  0  0  0  0  0  0  0  0  0  0  0
    3.4027   -5.7669   -4.7472 H   0  0  0  0  0  0  0  0  0  0  0  0
   -0.8354   -2.3241   -4.3187 H   0  0  0  0  0  0  0  0  0  0  0  0
  1  2  2  0
  1  3  1  0
  1  4  1  0
  5  6  2  0
  5  7  1  1
  1  8  1  0
  5  8  1  0
  9 10  2  0
  9 11  1  6
  5 12  1  0
  9 12  1  0
  9 13  1  0
 13 14  1  0
 15 14  1  0
 15 16  1  0
 15 17  1  0
 17 18  1  0
 17 19  1  0
 19 20  1  0
 16 21  1  0
 19 21  1  0
 21 22  1  0
 22 23  1  0
 23 24  2  0
 24 25  1  0
 25 26  1  0
 26 27  1  0
 26 28  2  0
 28 29  1  0
 29 30  2  0
 22 31  1  0
 25 31  2  0
 30 31  1  0
  3 32  1  0
  4 33  1  0
  7 34  1  0
  8 35  1  0
  8 36  1  0
 11 37  1  0
 14 38  1  0
 14 39  1  0
 15 40  1  1
 17 41  1  6
 18 42  1  0
 19 43  1  6
 20 44  1  0
 21 45  1  1
 23 46  1  0
 27 47  1  0
 27 48  1  0
 29 49  1  0
M  END
