7MYU_ZR7_A_401
     RDKit          3D

 55 59  0  0  0  0  0  0  0  0999 V2000
   15.7772   52.9074   85.9361 O   0  0  0  0  0  0  0  0  0  0  0  0
   29.5811   52.5065   89.3978 C   0  0  0  0  0  0  0  0  0  0  0  0
   27.9651   53.7791   88.2590 C   0  0  0  0  0  0  0  0  0  0  0  0
   23.1610   54.3660   89.0789 C   0  0  0  0  0  0  0  0  0  0  0  0
   26.6632   53.8602   87.7959 N   0  0  0  0  0  0  0  0  0  0  0  0
   26.0851   55.0720   87.2246 C   0  0  0  0  0  0  0  0  0  0  0  0
   25.7405   52.7180   87.7427 C   0  0  0  0  0  0  0  0  0  0  0  0
   24.6277   53.1974   86.8305 C   0  0  2  0  0  0  0  0  0  0  0  0
   24.5568   54.7169   87.1131 C   0  0  2  0  0  0  0  0  0  0  0  0
   20.0157   56.8970   87.8188 O   0  0  0  0  0  0  0  0  0  0  0  0
   19.8189   56.4779   86.7023 C   0  0  0  0  0  0  0  0  0  0  0  0
   18.7569   55.5072   86.4775 C   0  0  0  0  0  0  0  0  0  0  0  0
   19.0132   54.4208   85.7057 N   0  0  0  0  0  0  0  0  0  0  0  0
   18.0503   53.5515   85.5094 C   0  0  0  0  0  0  0  0  0  0  0  0
   16.7624   53.7889   86.1224 C   0  0  0  0  0  0  0  0  0  0  0  0
   14.7839   52.7427   86.9507 C   0  0  0  0  0  0  0  0  0  0  0  0
   16.5118   54.8652   86.8798 N   0  0  0  0  0  0  0  0  0  0  0  0
   17.5104   55.7395   87.0659 C   0  0  0  0  0  0  0  0  0  0  0  0
   20.4887   56.8949   85.5917 N   0  0  0  0  0  0  0  0  0  0  0  0
   21.7807   56.5715   85.2072 C   0  0  0  0  0  0  0  0  0  0  0  0
   22.2989   56.6318   83.8803 C   0  0  0  0  0  0  0  0  0  0  0  0
   23.5640   56.1004   83.6081 C   0  0  0  0  0  0  0  0  0  0  0  0
   24.2767   55.5240   84.6423 C   0  0  0  0  0  0  0  0  0  0  0  0
   25.4455   55.0384   84.3307 F   0  0  0  0  0  0  0  0  0  0  0  0
   22.5226   56.0120   86.2418 C   0  0  0  0  0  0  0  0  0  0  0  0
   23.7801   55.4543   86.0049 C   0  0  0  0  0  0  0  0  0  0  0  0
   23.9808   55.1082   88.3954 N   0  0  0  0  0  0  0  0  0  0  0  0
   22.6690   54.8291   90.2817 N   0  0  0  0  0  0  0  0  0  0  0  0
   22.5475   52.7208   88.6485 S   0  0  0  0  0  0  0  0  0  0  0  0
   23.2868   52.4839   87.0112 C   0  0  0  0  0  0  0  0  0  0  0  0
   28.8345   54.8524   87.9776 N   0  0  0  0  0  0  0  0  0  0  0  0
   30.0947   54.7163   88.4553 C   0  0  0  0  0  0  0  0  0  0  0  0
   30.4900   53.5479   89.1786 C   0  0  0  0  0  0  0  0  0  0  0  0
   31.6568   53.4411   89.6760 F   0  0  0  0  0  0  0  0  0  0  0  0
   28.3223   52.6004   88.9532 N   0  0  0  0  0  0  0  0  0  0  0  0
   29.8836   51.6604   89.9055 H   0  0  0  0  0  0  0  0  0  0  0  0
   26.5028   55.2803   86.2618 H   0  0  0  0  0  0  0  0  0  0  0  0
   26.2729   55.9462   87.8124 H   0  0  0  0  0  0  0  0  0  0  0  0
   25.3627   52.4869   88.7167 H   0  0  0  0  0  0  0  0  0  0  0  0
   26.2088   51.8226   87.3906 H   0  0  0  0  0  0  0  0  0  0  0  0
   24.8419   52.9710   85.8069 H   0  0  0  0  0  0  0  0  0  0  0  0
   18.2092   52.7136   84.9281 H   0  0  0  0  0  0  0  0  0  0  0  0
   14.0761   52.0028   86.6401 H   0  0  0  0  0  0  0  0  0  0  0  0
   14.2803   53.6729   87.1112 H   0  0  0  0  0  0  0  0  0  0  0  0
   15.2519   52.4288   87.8604 H   0  0  0  0  0  0  0  0  0  0  0  0
   17.3594   56.5821   87.6423 H   0  0  0  0  0  0  0  0  0  0  0  0
   19.9959   57.4983   84.9899 H   0  0  0  0  0  0  0  0  0  0  0  0
   21.7442   57.0648   83.1254 H   0  0  0  0  0  0  0  0  0  0  0  0
   23.9570   56.1380   82.6547 H   0  0  0  0  0  0  0  0  0  0  0  0
   22.1376   56.0091   87.1993 H   0  0  0  0  0  0  0  0  0  0  0  0
   22.9375   55.7158   90.6148 H   0  0  0  0  0  0  0  0  0  0  0  0
   22.0494   54.2729   90.8070 H   0  0  0  0  0  0  0  0  0  0  0  0
   23.4389   51.4359   86.8581 H   0  0  0  0  0  0  0  0  0  0  0  0
   22.6098   52.9077   86.2991 H   0  0  0  0  0  0  0  0  0  0  0  0
   30.7818   55.4692   88.2942 H   0  0  0  0  0  0  0  0  0  0  0  0
  3  5  1  0
  5  6  1  0
  5  7  1  0
  8  7  1  0
  6  9  1  0
  8  9  1  0
 10 11  2  0
 11 12  1  0
 12 13  4  0
 13 14  4  0
 14 15  4  0
  1 15  1  0
  1 16  1  0
 15 17  4  0
 12 18  4  0
 17 18  4  0
 11 19  1  0
 19 20  1  0
 20 21  4  0
 21 22  4  0
 22 23  4  0
 23 24  1  0
 20 25  4  0
 23 26  4  0
 25 26  4  0
  9 26  1  6
  9 27  1  0
  4 27  2  0
  4 28  1  0
  4 29  1  0
  8 30  1  0
 29 30  1  0
  3 31  4  0
 31 32  4  0
 32 33  4  0
  2 33  4  0
 33 34  1  0
  3 35  4  0
  2 35  4  0
  2 36  1  0
  6 37  1  0
  6 38  1  0
  7 39  1  0
  7 40  1  0
  8 41  1  6
 14 42  1  0
 16 43  1  0
 16 44  1  0
 16 45  1  0
 18 46  1  0
 19 47  1  0
 21 48  1  0
 22 49  1  0
 25 50  1  0
 28 51  1  0
 28 52  1  0
 30 53  1  0
 30 54  1  0
 32 55  1  0
M  END
