8D5D_5DK_A_505
     RDKit          3D

 49 49  0  0  0  0  0  0  0  0999 V2000
   -0.0198   -0.9754    2.4918 C   0  0  0  0  0  0  0  0  0  0  0  0
    0.8114   -1.5421    1.5125 C   0  0  0  0  0  0  0  0  0  0  0  0
    1.9062   -0.7950    1.0114 C   0  0  0  0  0  0  0  0  0  0  0  0
    2.1277    0.5180    1.5114 C   0  0  0  0  0  0  0  0  0  0  0  0
    1.2716    1.0157    2.5047 C   0  0  0  0  0  0  0  0  0  0  0  0
    2.5460   -3.5411   -2.7413 C   0  0  0  0  0  0  0  0  0  0  0  0
    0.5359   -2.8436    1.0783 O   0  0  0  0  0  0  0  0  0  0  0  0
    2.5939   -1.4415    0.0930 O   0  0  0  0  0  0  0  0  0  0  0  0
    5.1223   -1.4853   -1.0291 O   0  0  0  0  0  0  0  0  0  0  0  0
    3.2870    0.1955   -1.8178 O   0  0  0  0  0  0  0  0  0  0  0  0
    4.3372    0.6939    0.5294 O   0  0  0  0  0  0  0  0  0  0  0  0
    2.6107   -2.6122   -0.4289 N   0  0  0  0  0  0  0  0  0  0  0  0
    3.8233   -0.4946   -0.5844 P   0  0  1  0  0  5  0  0  0  0  0  0
   -1.1829   -1.7396    3.0471 C   0  0  0  0  0  0  0  0  0  0  0  0
    2.7633   -1.3793   -0.0470 C   0  0  0  0  0  0  0  0  0  0  0  0
    3.2230    1.4284    0.9906 C   0  0  0  0  0  0  0  0  0  0  0  0
    0.2352    0.2718    2.9604 N   0  0  0  0  0  0  0  0  0  0  0  0
    3.3945   -3.2813   -1.4744 C   0  0  2  0  0  0  0  0  0  0  0  0
    4.7039   -2.5748   -1.7461 C   0  0  0  0  0  0  0  0  0  0  0  0
    4.7567   -1.1836   -1.7338 O   0  0  0  0  0  0  0  0  0  0  0  0
    2.8514   -2.5961   -3.9173 C   0  0  0  0  0  0  0  0  0  0  0  0
    3.0892   -1.1560   -3.4503 C   0  0  0  0  0  0  0  0  0  0  0  0
    4.3020   -1.0665   -2.6352 N   0  0  0  0  0  0  0  0  0  0  0  0
    5.2242   -2.1534   -2.4619 C   0  0  0  0  0  0  0  0  0  0  0  0
    4.7488   -3.4108   -1.9754 N   0  0  0  0  0  0  0  0  0  0  0  0
    6.4806   -2.0003   -2.7409 N   0  0  0  0  0  0  0  0  0  0  0  0
    5.7675   -3.2338   -1.9023 O   0  0  0  0  0  0  0  0  0  0  0  0
    1.4147    2.0098    2.9083 H   0  0  0  0  0  0  0  0  0  0  0  0
    2.7021   -4.5949   -3.0616 H   0  0  0  0  0  0  0  0  0  0  0  0
    1.4725   -3.4401   -2.4695 H   0  0  0  0  0  0  0  0  0  0  0  0
    1.1136   -3.3538    0.4250 H   0  0  0  0  0  0  0  0  0  0  0  0
    2.4332   -2.1591   -0.5704 H   0  0  0  0  0  0  0  0  0  0  0  0
    5.8093   -0.8613   -1.3752 H   0  0  0  0  0  0  0  0  0  0  0  0
   -1.8747   -2.0228    2.2260 H   0  0  0  0  0  0  0  0  0  0  0  0
   -0.8206   -2.6572    3.5564 H   0  0  0  0  0  0  0  0  0  0  0  0
   -1.7415   -1.1224    3.7826 H   0  0  0  0  0  0  0  0  0  0  0  0
    3.5154   -0.7595   -0.5180 H   0  0  0  0  0  0  0  0  0  0  0  0
    3.5562    2.0786    1.8251 H   0  0  0  0  0  0  0  0  0  0  0  0
    2.8472    2.1435    0.2235 H   0  0  0  0  0  0  0  0  0  0  0  0
    3.6667   -4.2822   -1.0765 H   0  0  0  0  0  0  0  0  0  0  0  0
    5.6303   -0.6943   -1.8860 H   0  0  0  0  0  0  0  0  0  0  0  0
    2.0019   -2.5923   -4.6327 H   0  0  0  0  0  0  0  0  0  0  0  0
    3.7578   -2.9460   -4.4536 H   0  0  0  0  0  0  0  0  0  0  0  0
    3.2167   -0.5093   -4.3449 H   0  0  0  0  0  0  0  0  0  0  0  0
    2.2016   -0.7759   -2.9003 H   0  0  0  0  0  0  0  0  0  0  0  0
    4.5529   -0.1332   -2.2381 H   0  0  0  0  0  0  0  0  0  0  0  0
    5.4010   -4.2149   -1.8392 H   0  0  0  0  0  0  0  0  0  0  0  0
    3.7384   -3.5416   -1.7479 H   0  0  0  0  0  0  0  0  0  0  0  0
    7.1690   -2.7763   -2.6210 H   0  0  0  0  0  0  0  0  0  0  0  0
  1  2  4  0
  2  3  4  0
  3  4  4  0
  4  5  4  0
  2  7  1  0
 10 13  2  0
 13  8  1  6
 11 13  1  0
  9 13  1  0
  1 14  1  0
 12 15  2  3
  3 15  1  0
 11 16  1  0
  4 16  1  0
  1 17  4  0
  5 17  4  0
 18  6  1  0
 12 18  1  0
 18 19  1  0
 19 20  1  0
  6 21  1  0
 21 22  1  0
 22 23  1  0
 23 24  1  0
 24 25  1  0
 24 26  2  3
 19 27  2  0
  5 28  1  0
  6 29  1  0
  6 30  1  0
  7 31  1  0
  8 32  1  0
  9 33  1  0
 14 34  1  0
 14 35  1  0
 14 36  1  0
 15 37  1  0
 16 38  1  0
 16 39  1  0
 18 40  1  6
 20 41  1  0
 21 42  1  0
 21 43  1  0
 22 44  1  0
 22 45  1  0
 23 46  1  0
 25 47  1  0
 25 48  1  0
 26 49  1  0
M  END
