1GKC_NFH_A_1448
     RDKit          3D

 22 21  0  0  0  0  0  0  0  0999 V2000
   66.2197   30.1149  117.4375 C   0  0  0  0  0  0  0  0  0  0  0  0
   65.4202   28.9661  113.9377 N   0  0  0  0  0  0  0  0  0  0  0  0
   66.8471   29.1953  118.0768 O   0  0  0  0  0  0  0  0  0  0  0  0
   66.6093   31.6164  120.2971 C   0  0  0  0  0  0  0  0  0  0  0  0
   66.4156   31.4300  117.9362 N   0  0  0  0  0  0  0  0  0  0  0  0
   65.4981   32.1980  120.3866 O   0  0  0  0  0  0  0  0  0  0  0  0
   67.1025   30.9617  121.4378 N   0  0  0  0  0  0  0  0  0  0  0  0
   65.4008   29.7151  116.3174 C   0  0  2  0  0  0  0  0  0  0  0  0
   64.1847   28.8940  116.7392 C   0  0  0  0  0  0  0  0  0  0  0  0
   63.2674   29.6051  117.6636 C   0  0  2  0  0  0  0  0  0  0  0  0
   64.7610   27.7521  113.4993 C   0  0  0  0  0  0  0  0  0  0  0  0
   64.2751   27.8442  112.3189 O   0  0  0  0  0  0  0  0  0  0  0  0
   66.0497   28.8940  115.2308 C   0  0  0  0  0  0  0  0  0  0  0  0
   65.4285   30.0782  113.1645 O   0  0  0  0  0  0  0  0  0  0  0  0
   67.3861   31.6302  118.9831 C   0  0  1  0  0  0  0  0  0  0  0  0
   68.0825   32.9521  118.9709 C   0  0  1  0  0  0  0  0  0  0  0  0
   62.2059   28.5739  118.0854 C   0  0  0  0  0  0  0  0  0  0  0  0
   62.4617   30.6877  116.9412 C   0  0  0  0  0  0  0  0  0  0  0  0
   69.1228   33.0177  120.0886 C   0  0  0  0  0  0  0  0  0  0  0  0
   68.7958   33.2745  117.6862 C   0  0  0  0  0  0  0  0  0  0  0  0
   67.0800   34.0649  119.3111 C   0  0  0  0  0  0  0  0  0  0  0  0
   66.4371   30.9985  122.7165 C   0  0  0  0  0  0  0  0  0  0  0  0
  1  3  2  0
  1  5  1  0
  4  6  2  0
  4  7  1  0
  8  1  1  1
  9  8  1  6
  9 10  1  0
  2 11  1  0
 11 12  2  0
  8 13  1  0
 13  2  1  6
  2 14  1  0
  4 15  1  0
 15  5  1  6
 15 16  1  0
 10 17  1  6
 18 10  1  1
 16 19  1  1
 20 16  1  6
 21 16  1  1
 22  7  1  1
M  END
$$$$
