7XQZ_FPF_A_601
     RDKit          3D

 25 24  0  0  0  0  0  0  0  0999 V2000
  -19.7587   -0.1063  -19.4243 C   0  0  0  0  0  0  0  0  0  0  0  0
  -20.9913    0.1616  -19.9938 O   0  0  0  0  0  0  0  0  0  0  0  0
  -19.0567   -1.2554  -20.0898 C   0  0  0  0  0  0  0  0  0  0  0  0
  -19.7095   -1.7841  -21.1670 F   0  0  0  0  0  0  0  0  0  0  0  0
  -17.8982   -1.6967  -19.6444 C   0  0  0  0  0  0  0  0  0  0  0  0
  -17.4083   -2.9985  -20.1882 C   0  0  0  0  0  0  0  0  0  0  0  0
  -17.0451   -1.0080  -18.6525 C   0  0  0  0  0  0  0  0  0  0  0  0
  -17.2746    0.4649  -18.5977 C   0  0  0  0  0  0  0  0  0  0  0  0
  -18.0622    0.8449  -17.3765 C   0  0  0  0  0  0  0  0  0  0  0  0
  -18.5663    2.0663  -17.2463 C   0  0  0  0  0  0  0  0  0  0  0  0
  -18.4474    3.0223  -18.3659 C   0  0  0  0  0  0  0  0  0  0  0  0
  -19.2461    2.4783  -15.9896 C   0  0  0  0  0  0  0  0  0  0  0  0
  -20.3011    1.4609  -15.6162 C   0  0  0  0  0  0  0  0  0  0  0  0
  -20.8889    1.7349  -14.2796 C   0  0  0  0  0  0  0  0  0  0  0  0
  -21.7639    0.9176  -13.7034 C   0  0  0  0  0  0  0  0  0  0  0  0
  -22.5042    1.4128  -12.5108 C   0  0  0  0  0  0  0  0  0  0  0  0
  -21.9545   -0.4398  -14.2786 C   0  0  0  0  0  0  0  0  0  0  0  0
  -21.9005    1.2406  -19.0808 P   0  0  1  0  0  0  0  0  0  0  0  0
  -21.7838    0.8088  -17.6325 O   0  0  0  0  0  0  0  0  0  0  0  0
  -21.2541    2.7840  -19.2142 O   0  0  0  0  0  0  0  0  0  0  0  0
  -23.5401    1.1814  -19.4879 O   0  0  0  0  0  0  0  0  0  0  0  0
  -24.0396   -0.3594  -19.8938 P   0  0  1  0  0  0  0  0  0  0  0  0
  -25.7070   -0.5380  -19.8688 O   0  0  0  0  0  0  0  0  0  0  0  0
  -23.4080   -0.8732  -21.3745 O   0  0  0  0  0  0  0  0  0  0  0  0
  -23.4748   -1.3023  -18.8452 O   0  0  0  0  0  0  0  0  0  0  0  0
  1  2  1  0
  1  3  1  0
  3  4  1  0
  3  5  2  0
  5  6  1  0
  5  7  1  0
  7  8  1  0
  8  9  1  0
  9 10  2  0
 10 11  1  0
 10 12  1  0
 12 13  1  0
 13 14  1  0
 14 15  2  0
 15 16  1  0
 15 17  1  0
  2 18  1  0
 18 19  2  0
 18 20  1  1
 18 21  1  0
 21 22  1  0
 22 23  1  6
 22 24  1  0
 22 25  2  0
M  END
$$$$
