1OPK_P16_A_2
     RDKit          3D

 29 32  0  0  0  0  0  0  0  0999 V2000
   22.7801   24.3532    9.0161 O   0  0  0  0  0  0  0  0  0  0  0  0
   21.9624   23.2719    8.6720 C   0  0  0  0  0  0  0  0  0  0  0  0
   22.4980   21.9724    9.1730 C   0  0  0  0  0  0  0  0  0  0  0  0
   22.2307   21.4720   10.4220 C   0  0  0  0  0  0  0  0  0  0  0  0
   22.7826   20.2550   10.7729 C   0  0  0  0  0  0  0  0  0  0  0  0
   23.5955   19.5326    9.8963 C   0  0  0  0  0  0  0  0  0  0  0  0
   23.8629   20.0311    8.6510 C   0  0  0  0  0  0  0  0  0  0  0  0
   24.6763   19.3725    7.6928 N   0  0  0  0  0  0  0  0  0  0  0  0
   25.4386   20.0530    6.7063 C   0  0  0  0  0  0  0  0  0  0  0  0
   25.9368   19.4376    5.6166 N   0  0  0  0  0  0  0  0  0  0  0  0
   26.6614   20.1754    4.7385 C   0  0  0  0  0  0  0  0  0  0  0  0
   26.8921   21.5144    4.9371 C   0  0  0  0  0  0  0  0  0  0  0  0
   27.6303   22.3013    4.0632 C   0  0  0  0  0  0  0  0  0  0  0  0
   27.8161   23.6394    4.3423 C   0  0  0  0  0  0  0  0  0  0  0  0
   27.2575   24.1937    5.5058 C   0  0  0  0  0  0  0  0  0  0  0  0
   27.4229   25.4248    5.7716 O   0  0  0  0  0  0  0  0  0  0  0  0
   26.5513   23.4022    6.3244 N   0  0  0  0  0  0  0  0  0  0  0  0
   26.3645   22.0989    6.0626 C   0  0  0  0  0  0  0  0  0  0  0  0
   25.6451   21.3823    6.9406 N   0  0  0  0  0  0  0  0  0  0  0  0
   25.9700   23.9805    7.5380 C   0  0  0  0  0  0  0  0  0  0  0  0
   28.5674   24.5500    3.5101 C   0  0  0  0  0  0  0  0  0  0  0  0
   27.9606   25.2842    2.5034 C   0  0  0  0  0  0  0  0  0  0  0  0
   26.2259   25.1103    2.2129 Cl  0  0  0  0  0  0  0  0  0  0  0  0
   28.7454   26.1332    1.7573 C   0  0  0  0  0  0  0  0  0  0  0  0
   30.1036   26.2669    1.9869 C   0  0  0  0  0  0  0  0  0  0  0  0
   30.7129   25.5327    2.9930 C   0  0  0  0  0  0  0  0  0  0  0  0
   29.9287   24.6708    3.7542 C   0  0  0  0  0  0  0  0  0  0  0  0
   30.7324   23.7540    5.0162 Cl  0  0  0  0  0  0  0  0  0  0  0  0
   23.2987   21.2584    8.3139 C   0  0  0  0  0  0  0  0  0  0  0  0
  1  2  1  0
  2  3  1  0
  3  4  2  0
  4  5  1  0
  5  6  2  0
  6  7  1  0
  7  8  1  0
  8  9  1  0
  9 10  2  0
 10 11  1  0
 11 12  2  0
 12 13  1  0
 13 14  2  0
 14 15  1  0
 15 16  2  0
 15 17  1  0
 12 18  1  0
 17 18  1  0
  9 19  1  0
 18 19  2  0
 17 20  1  0
 14 21  1  0
 21 22  2  0
 22 23  1  0
 22 24  1  0
 24 25  2  0
 25 26  1  0
 21 27  1  0
 26 27  2  0
 27 28  1  0
  3 29  1  0
  7 29  2  0
M  END
$$$$
