1OPK_P16_A_2
     RDKit          3D

 29 32  0  0  0  0  0  0  0  0999 V2000
   26.9477   15.6206    6.5012 O   0  0  0  0  0  0  0  0  0  0  0  0
   27.7713   15.8898    7.5992 C   0  0  0  0  0  0  0  0  0  0  0  0
   27.1891   16.9212    8.5070 C   0  0  0  0  0  0  0  0  0  0  0  0
   26.1883   16.6610    9.4085 C   0  0  0  0  0  0  0  0  0  0  0  0
   25.7311   17.6984   10.1982 C   0  0  0  0  0  0  0  0  0  0  0  0
   26.2579   18.9885   10.1006 C   0  0  0  0  0  0  0  0  0  0  0  0
   27.2555   19.2486    9.2016 C   0  0  0  0  0  0  0  0  0  0  0  0
   27.8523   20.5244    9.0289 N   0  0  0  0  0  0  0  0  0  0  0  0
   28.4217   20.9681    7.8057 C   0  0  0  0  0  0  0  0  0  0  0  0
   29.3033   21.9843    7.7378 N   0  0  0  0  0  0  0  0  0  0  0  0
   29.7809   22.3384    6.5185 C   0  0  0  0  0  0  0  0  0  0  0  0
   29.3888   21.6912    5.3726 C   0  0  0  0  0  0  0  0  0  0  0  0
   29.8531   22.0263    4.1077 C   0  0  0  0  0  0  0  0  0  0  0  0
   29.4032   21.3246    3.0086 C   0  0  0  0  0  0  0  0  0  0  0  0
   28.4812   20.2785    3.1780 C   0  0  0  0  0  0  0  0  0  0  0  0
   28.0609   19.6264    2.1721 O   0  0  0  0  0  0  0  0  0  0  0  0
   28.0568   19.9847    4.4144 N   0  0  0  0  0  0  0  0  0  0  0  0
   28.4878   20.6611    5.4909 C   0  0  0  0  0  0  0  0  0  0  0  0
   28.0063   20.2987    6.6904 N   0  0  0  0  0  0  0  0  0  0  0  0
   27.0945   18.8946    4.5903 C   0  0  0  0  0  0  0  0  0  0  0  0
   29.8127   21.5878    1.6487 C   0  0  0  0  0  0  0  0  0  0  0  0
   30.9863   21.0654    1.1285 C   0  0  0  0  0  0  0  0  0  0  0  0
   32.0229   20.0545    2.1421 Cl  0  0  0  0  0  0  0  0  0  0  0  0
   31.3037   21.3596   -0.1776 C   0  0  0  0  0  0  0  0  0  0  0  0
   30.4902   22.1519   -0.9687 C   0  0  0  0  0  0  0  0  0  0  0  0
   29.3159   22.6761   -0.4501 C   0  0  0  0  0  0  0  0  0  0  0  0
   28.9848   22.3850    0.8701 C   0  0  0  0  0  0  0  0  0  0  0  0
   27.4942   23.0678    1.4955 Cl  0  0  0  0  0  0  0  0  0  0  0  0
   27.7042   18.1919    8.4140 C   0  0  0  0  0  0  0  0  0  0  0  0
  1  2  1  0
  2  3  1  0
  3  4  2  0
  4  5  1  0
  5  6  2  0
  6  7  1  0
  7  8  1  0
  8  9  1  0
  9 10  2  0
 10 11  1  0
 11 12  2  0
 12 13  1  0
 13 14  2  0
 14 15  1  0
 15 16  2  0
 15 17  1  0
 12 18  1  0
 17 18  1  0
  9 19  1  0
 18 19  2  0
 17 20  1  0
 14 21  1  0
 21 22  2  0
 22 23  1  0
 22 24  1  0
 24 25  2  0
 25 26  1  0
 21 27  1  0
 26 27  2  0
 27 28  1  0
  3 29  1  0
  7 29  2  0
M  END
$$$$
