1OPK_P16_A_2
     RDKit          3D

 29 32  0  0  0  0  0  0  0  0999 V2000
   31.5786   15.1441    8.4518 O   0  0  0  0  0  0  0  0  0  0  0  0
   30.5826   15.2255    7.4731 C   0  0  0  0  0  0  0  0  0  0  0  0
   30.6088   16.5264    6.7426 C   0  0  0  0  0  0  0  0  0  0  0  0
   31.7620   17.1333    6.3140 C   0  0  0  0  0  0  0  0  0  0  0  0
   31.6596   18.3377    5.6449 C   0  0  0  0  0  0  0  0  0  0  0  0
   30.4250   18.9429    5.3984 C   0  0  0  0  0  0  0  0  0  0  0  0
   29.2748   18.3386    5.8258 C   0  0  0  0  0  0  0  0  0  0  0  0
   27.9768   18.8750    5.6237 N   0  0  0  0  0  0  0  0  0  0  0  0
   26.9936   18.9632    6.6450 C   0  0  0  0  0  0  0  0  0  0  0  0
   25.7568   19.4499    6.4266 N   0  0  0  0  0  0  0  0  0  0  0  0
   24.8942   19.5015    7.4724 C   0  0  0  0  0  0  0  0  0  0  0  0
   25.2528   19.0744    8.7272 C   0  0  0  0  0  0  0  0  0  0  0  0
   24.3995   19.1139    9.8217 C   0  0  0  0  0  0  0  0  0  0  0  0
   24.8438   18.6670   11.0488 C   0  0  0  0  0  0  0  0  0  0  0  0
   26.1533   18.1760   11.1803 C   0  0  0  0  0  0  0  0  0  0  0  0
   26.5718   17.7621   12.3060 O   0  0  0  0  0  0  0  0  0  0  0  0
   26.9467   18.1535   10.1009 N   0  0  0  0  0  0  0  0  0  0  0  0
   26.5248   18.5860    8.9022 C   0  0  0  0  0  0  0  0  0  0  0  0
   27.3897   18.5282    7.8773 N   0  0  0  0  0  0  0  0  0  0  0  0
   28.3124   17.6424   10.2389 C   0  0  0  0  0  0  0  0  0  0  0  0
   24.0477   18.6654   12.2539 C   0  0  0  0  0  0  0  0  0  0  0  0
   23.9416   19.7900   13.0570 C   0  0  0  0  0  0  0  0  0  0  0  0
   24.7996   21.2702   12.6135 Cl  0  0  0  0  0  0  0  0  0  0  0  0
   23.1600   19.7084   14.1865 C   0  0  0  0  0  0  0  0  0  0  0  0
   22.4897   18.5478   14.5314 C   0  0  0  0  0  0  0  0  0  0  0  0
   22.5950   17.4213   13.7298 C   0  0  0  0  0  0  0  0  0  0  0  0
   23.3829   17.4924   12.5846 C   0  0  0  0  0  0  0  0  0  0  0  0
   23.4975   16.0477   11.5953 Cl  0  0  0  0  0  0  0  0  0  0  0  0
   29.3963   17.1256    6.4982 C   0  0  0  0  0  0  0  0  0  0  0  0
  1  2  1  0
  2  3  1  0
  3  4  2  0
  4  5  1  0
  5  6  2  0
  6  7  1  0
  7  8  1  0
  8  9  1  0
  9 10  2  0
 10 11  1  0
 11 12  2  0
 12 13  1  0
 13 14  2  0
 14 15  1  0
 15 16  2  0
 15 17  1  0
 12 18  1  0
 17 18  1  0
  9 19  1  0
 18 19  2  0
 17 20  1  0
 14 21  1  0
 21 22  2  0
 22 23  1  0
 22 24  1  0
 24 25  2  0
 25 26  1  0
 21 27  1  0
 26 27  2  0
 27 28  1  0
  3 29  1  0
  7 29  2  0
M  END
$$$$
