1J3J_CP6_A_609
     RDKit          3D

 30 31  0  0  0  0  0  0  0  0999 V2000
   -0.2334    2.6948   -0.1803 N   0  0  0  0  0  0  0  0  0  0  0  0
   -1.0387    2.6600   -1.2711 C   0  0  0  0  0  0  0  0  0  0  0  0
    0.3202    1.5641    0.3300 C   0  0  0  0  0  0  0  0  0  0  0  0
    0.0571    0.3212   -0.2843 C   0  0  0  0  0  0  0  0  0  0  0  0
   -0.7765    0.3085   -1.4263 C   0  0  0  0  0  0  0  0  0  0  0  0
   -1.3053    1.4766   -1.8779 N   0  0  0  0  0  0  0  0  0  0  0  0
    0.6317   -0.9263    0.2609 C   0  0  0  0  0  0  0  0  0  0  0  0
    0.0709   -1.5206    1.4013 C   0  0  0  0  0  0  0  0  0  0  0  0
    0.6192   -2.6967    1.9217 C   0  0  0  0  0  0  0  0  0  0  0  0
    1.7331   -3.2818    1.3095 C   0  0  0  0  0  0  0  0  0  0  0  0
    2.3000   -2.6876    0.1766 C   0  0  0  0  0  0  0  0  0  0  0  0
    1.7534   -1.5114   -0.3456 C   0  0  0  0  0  0  0  0  0  0  0  0
    1.1697    1.6704    1.4777 N   0  0  0  0  0  0  0  0  0  0  0  0
   -1.6072    3.8654   -1.7772 N   0  0  0  0  0  0  0  0  0  0  0  0
   -1.1680   -0.9657   -2.1307 C   0  0  0  0  0  0  0  0  0  0  0  0
   -2.3917   -1.5959   -1.4742 C   0  0  0  0  0  0  0  0  0  0  0  0
    2.4199   -4.7574    1.9633 Cl  0  0  0  0  0  0  0  0  0  0  0  0
   -0.7908   -1.0745    1.8827 H   0  0  0  0  0  0  0  0  0  0  0  0
    0.1787   -3.1514    2.7997 H   0  0  0  0  0  0  0  0  0  0  0  0
    3.1635   -3.1352   -0.2988 H   0  0  0  0  0  0  0  0  0  0  0  0
    2.2007   -1.0575   -1.2214 H   0  0  0  0  0  0  0  0  0  0  0  0
    1.6540    0.8437    1.8913 H   0  0  0  0  0  0  0  0  0  0  0  0
    1.3356    2.6035    1.9161 H   0  0  0  0  0  0  0  0  0  0  0  0
   -2.2291    3.8452   -2.6157 H   0  0  0  0  0  0  0  0  0  0  0  0
   -1.4070    4.7795   -1.3140 H   0  0  0  0  0  0  0  0  0  0  0  0
   -1.4084   -0.7398   -3.1923 H   0  0  0  0  0  0  0  0  0  0  0  0
   -0.3311   -1.6941   -2.1392 H   0  0  0  0  0  0  0  0  0  0  0  0
   -2.1719   -1.8682   -0.4208 H   0  0  0  0  0  0  0  0  0  0  0  0
   -3.2485   -0.8890   -1.4978 H   0  0  0  0  0  0  0  0  0  0  0  0
   -2.6757   -2.5170   -2.0253 H   0  0  0  0  0  0  0  0  0  0  0  0
  1  2  2  0
  1  3  1  0
  3  4  2  0
  4  5  1  0
  2  6  1  0
  5  6  2  0
  4  7  1  0
  7  8  2  0
  8  9  1  0
  9 10  2  0
 10 11  1  0
  7 12  1  0
 11 12  2  0
  3 13  1  0
  2 14  1  0
  5 15  1  0
 15 16  1  0
 10 17  1  0
  8 18  1  0
  9 19  1  0
 11 20  1  0
 12 21  1  0
 13 22  1  0
 13 23  1  0
 14 24  1  0
 14 25  1  0
 15 26  1  0
 15 27  1  0
 16 28  1  0
 16 29  1  0
 16 30  1  0
M  END
