1J3J_CP6_B_709
     RDKit          3D

 17 18  0  0  0  0  0  0  0  0999 V2000
   29.0140  -27.3900    8.8790 N   0  0  0  0  0  0  0  0  0  0  0  0
   29.7160  -26.2810    8.4340 C   0  0  0  0  0  0  0  0  0  0  0  0
   29.3570  -28.6530    8.4070 C   0  0  0  0  0  0  0  0  0  0  0  0
   30.3520  -28.8150    7.2970 C   0  0  0  0  0  0  0  0  0  0  0  0
   31.0480  -27.5260    6.9100 C   0  0  0  0  0  0  0  0  0  0  0  0
   30.6650  -26.3230    7.4090 N   0  0  0  0  0  0  0  0  0  0  0  0
   30.7740  -30.1050    6.7450 C   0  0  0  0  0  0  0  0  0  0  0  0
   30.1640  -30.5750    5.5550 C   0  0  0  0  0  0  0  0  0  0  0  0
   30.5140  -31.8080    4.9720 C   0  0  0  0  0  0  0  0  0  0  0  0
   31.5300  -32.6410    5.6010 C   0  0  0  0  0  0  0  0  0  0  0  0
   32.1620  -32.2220    6.7790 C   0  0  0  0  0  0  0  0  0  0  0  0
   31.7850  -30.9700    7.3420 C   0  0  0  0  0  0  0  0  0  0  0  0
   28.7040  -29.7520    8.8200 N   0  0  0  0  0  0  0  0  0  0  0  0
   29.3890  -25.0160    8.9540 N   0  0  0  0  0  0  0  0  0  0  0  0
   32.0850  -27.5680    5.8160 C   0  0  0  0  0  0  0  0  0  0  0  0
   33.3830  -26.8110    6.0210 C   0  0  0  0  0  0  0  0  0  0  0  0
   31.8680  -34.0790    4.8320 Cl  0  0  0  0  0  0  0  0  0  0  0  0
  1  2  2  0
  1  3  1  0
  3  4  2  0
  4  5  1  0
  2  6  1  0
  5  6  2  0
  4  7  1  0
  7  8  2  0
  8  9  1  0
  9 10  2  0
 10 11  1  0
  7 12  1  0
 11 12  2  0
  3 13  1  0
  2 14  1  0
  5 15  1  0
 15 16  1  0
 10 17  1  0
M  END
$$$$
1J3J_CP6_A_609
     RDKit          3D

 17 18  0  0  0  0  0  0  0  0999 V2000
   29.8760    4.1050   56.3530 N   0  0  0  0  0  0  0  0  0  0  0  0
   29.3430    5.0480   55.4730 C   0  0  0  0  0  0  0  0  0  0  0  0
   29.5330    4.1550   57.6870 C   0  0  0  0  0  0  0  0  0  0  0  0
   28.5300    5.1440   58.1820 C   0  0  0  0  0  0  0  0  0  0  0  0
   28.0470    6.1130   57.1470 C   0  0  0  0  0  0  0  0  0  0  0  0
   28.4140    6.0290   55.8370 N   0  0  0  0  0  0  0  0  0  0  0  0
   28.1050    5.2380   59.5600 C   0  0  0  0  0  0  0  0  0  0  0  0
   28.7100    6.0880   60.5010 C   0  0  0  0  0  0  0  0  0  0  0  0
   28.2730    6.1450   61.8450 C   0  0  0  0  0  0  0  0  0  0  0  0
   27.1820    5.3060   62.2940 C   0  0  0  0  0  0  0  0  0  0  0  0
   26.5410    4.4530   61.4010 C   0  0  0  0  0  0  0  0  0  0  0  0
   26.9930    4.4190   60.0470 C   0  0  0  0  0  0  0  0  0  0  0  0
   30.0320    3.2590   58.5670 N   0  0  0  0  0  0  0  0  0  0  0  0
   29.7100    4.9790   54.1210 N   0  0  0  0  0  0  0  0  0  0  0  0
   27.0510    7.1590   57.5690 C   0  0  0  0  0  0  0  0  0  0  0  0
   25.6780    7.1840   56.9350 C   0  0  0  0  0  0  0  0  0  0  0  0
   26.7810    5.4560   63.9000 Cl  0  0  0  0  0  0  0  0  0  0  0  0
  1  2  2  0
  1  3  1  0
  3  4  2  0
  4  5  1  0
  2  6  1  0
  5  6  2  0
  4  7  1  0
  7  8  2  0
  8  9  1  0
  9 10  2  0
 10 11  1  0
  7 12  1  0
 11 12  2  0
  3 13  1  0
  2 14  1  0
  5 15  1  0
 15 16  1  0
 10 17  1  0
M  END
$$$$
