7P5T_5YG_A_402
     RDKit          3D

 23 25  0  0  0  0  0  0  0  0999 V2000
  -16.8287   12.5050  -17.8048 C   0  0  0  0  0  0  0  0  0  0  0  0
  -16.6934    8.9484  -17.5656 C   0  0  0  0  0  0  0  0  0  0  0  0
  -15.7855    7.9330  -17.3084 C   0  0  0  0  0  0  0  0  0  0  0  0
  -14.4224    8.1750  -17.4470 C   0  0  0  0  0  0  0  0  0  0  0  0
  -13.4274    7.0484  -17.1779 C   0  0  0  0  0  0  0  0  0  0  0  0
  -11.8001    6.2209  -15.4357 C   0  0  0  0  0  0  0  0  0  0  0  0
   -9.9831    4.9116  -16.2341 C   0  0  0  0  0  0  0  0  0  0  0  0
   -7.9444    4.3988  -14.9169 C   0  0  0  0  0  0  0  0  0  0  0  0
   -7.8237    2.9238  -14.6009 C   0  0  0  0  0  0  0  0  0  0  0  0
   -6.5451    2.4040  -14.5726 C   0  0  0  0  0  0  0  0  0  0  0  0
   -6.3944    1.0507  -14.2990 C   0  0  0  0  0  0  0  0  0  0  0  0
   -8.6656    0.7589  -14.0869 C   0  0  0  0  0  0  0  0  0  0  0  0
   -8.9120    2.1004  -14.3790 C   0  0  0  0  0  0  0  0  0  0  0  0
  -11.1625    6.3563  -14.2009 C   0  0  0  0  0  0  0  0  0  0  0  0
  -13.9887    9.4400  -17.8444 C   0  0  0  0  0  0  0  0  0  0  0  0
  -16.2601   10.2119  -17.9514 C   0  0  0  0  0  0  0  0  0  0  0  0
  -11.2038    5.4960  -16.4396 C   0  0  0  0  0  0  0  0  0  0  0  0
   -9.3266    5.0136  -15.0169 C   0  0  0  0  0  0  0  0  0  0  0  0
   -9.9212    5.7412  -13.9803 C   0  0  0  0  0  0  0  0  0  0  0  0
  -14.9053   10.4551  -18.1046 C   0  0  0  0  0  0  0  0  0  0  0  0
  -13.0798    6.8486  -15.7602 N   0  0  0  0  0  0  0  0  0  0  0  0
   -7.4298    0.2555  -14.0464 N   0  0  0  0  0  0  0  0  0  0  0  0
  -17.2168   11.2154  -18.1934 O   0  0  0  0  0  0  0  0  0  0  0  0
  2  3  2  0
  3  4  1  0
  4  5  1  0
  8  9  1  0
  9 10  2  0
 10 11  1  0
 12 13  2  0
  9 13  1  0
  6 14  2  0
  4 15  2  0
  2 16  1  0
  7 17  2  0
  6 17  1  0
  8 18  1  0
  7 18  1  0
 18 19  2  0
 14 19  1  0
 15 20  1  0
 16 20  2  0
  6 21  1  0
  5 21  1  0
 11 22  2  0
 12 22  1  0
 16 23  1  0
  1 23  1  0
M  END
