7V43_C4O_A_501
     RDKit          3D

  8  8  0  0  0  0  0  0  0  0999 V2000
  -43.1986   29.4418   -6.1936 C   0  0  0  0  0  0  0  0  0  0  0  0
  -42.9837   27.9623   -6.2148 C   0  0  0  0  0  0  0  0  0  0  0  0
  -43.3796   27.1371   -7.3011 C   0  0  0  0  0  0  0  0  0  0  0  0
  -43.2028   25.7692   -7.3493 C   0  0  0  0  0  0  0  0  0  0  0  0
  -42.6741   25.2153   -6.2399 C   0  0  0  0  0  0  0  0  0  0  0  0
  -42.4283   23.4787   -6.3067 Cl  0  0  0  0  0  0  0  0  0  0  0  0
  -42.2982   25.9161   -5.1116 C   0  0  0  0  0  0  0  0  0  0  0  0
  -42.4711   27.3106   -5.1279 C   0  0  0  0  0  0  0  0  0  0  0  0
  1  2  1  0
  2  3  2  0
  3  4  1  0
  4  5  2  0
  5  6  1  0
  5  7  1  0
  7  8  2  0
  2  8  1  0
M  END
