8AP0_PRP_AAA_401
     RDKit          3D

 35 35  0  0  0  0  0  0  0  0999 V2000
    7.4515   16.9592    4.8256 C   0  0  1  0  0  0  0  0  0  0  0  0
    6.8240   15.8210    4.0178 C   0  0  1  0  0  0  0  0  0  0  0  0
    7.9718   15.3958    3.1420 C   0  0  1  0  0  0  0  0  0  0  0  0
    9.1793   15.6944    4.0227 C   0  0  1  0  0  0  0  0  0  0  0  0
   10.4038   16.1010    3.1981 C   0  0  2  0  0  0  0  0  0  0  0  0
    6.9120   17.0232    6.1315 O   0  0  0  0  0  0  0  0  0  0  0  0
    6.4316   14.7631    4.8583 O   0  0  0  0  0  0  0  0  0  0  0  0
    7.9133   14.0328    2.8082 O   0  0  0  0  0  0  0  0  0  0  0  0
    8.8405   16.7265    4.9251 O   0  0  0  0  0  0  0  0  0  0  0  0
   11.5685   15.6594    3.8544 O   0  0  0  0  0  0  0  0  0  0  0  0
   12.9154   16.1072    2.9107 P   0  0  1  0  0  5  0  0  0  0  0  0
   13.2991   14.9445    2.0239 O   0  0  0  0  0  0  0  0  0  0  0  0
   12.5249   17.4403    1.9418 O   0  0  0  0  0  0  0  0  0  0  0  0
   14.2218   16.4940    3.9168 O   0  0  0  0  0  0  0  0  0  0  0  0
    7.6228   18.3103    7.0015 P   0  0  1  0  0  5  0  0  0  0  0  0
    9.1254   18.1580    6.9148 O   0  0  0  0  0  0  0  0  0  0  0  0
    7.1726   19.7747    6.2786 O   0  0  0  0  0  0  0  0  0  0  0  0
    7.1111   18.2644    8.6276 O   0  0  0  0  0  0  0  0  0  0  0  0
    7.8929   19.5244    9.4658 P   0  0  1  0  0  5  0  0  0  0  0  0
    7.1863   20.8366    9.2053 O   0  0  0  0  0  0  0  0  0  0  0  0
    7.9502   19.2161   11.1318 O   0  0  0  0  0  0  0  0  0  0  0  0
    9.4783   19.6444    8.8894 O   0  0  0  0  0  0  0  0  0  0  0  0
    7.3342   17.9127    4.2575 H   0  0  0  0  0  0  0  0  0  0  0  0
    5.9707   16.1732    3.3926 H   0  0  0  0  0  0  0  0  0  0  0  0
    7.9894   16.0247    2.2194 H   0  0  0  0  0  0  0  0  0  0  0  0
    9.4359   14.7885    4.6178 H   0  0  0  0  0  0  0  0  0  0  0  0
   10.4071   17.2105    3.0930 H   0  0  0  0  0  0  0  0  0  0  0  0
   10.3194   15.6288    2.1926 H   0  0  0  0  0  0  0  0  0  0  0  0
    5.5294   14.9931    5.2026 H   0  0  0  0  0  0  0  0  0  0  0  0
    6.9773   13.7447    2.9710 H   0  0  0  0  0  0  0  0  0  0  0  0
   12.7281   17.1507    1.0169 H   0  0  0  0  0  0  0  0  0  0  0  0
   15.0255   16.2237    3.4050 H   0  0  0  0  0  0  0  0  0  0  0  0
    6.5877   20.2208    6.9413 H   0  0  0  0  0  0  0  0  0  0  0  0
    7.4209   18.3892   11.2633 H   0  0  0  0  0  0  0  0  0  0  0  0
    9.4264   19.3420    7.9477 H   0  0  0  0  0  0  0  0  0  0  0  0
  1  2  1  0
  2  3  1  0
  3  4  1  0
  4  5  1  0
  1  6  1  0
  2  7  1  0
  3  8  1  0
  1  9  1  0
  4  9  1  0
  5 10  1  0
 11 10  1  1
 11 12  2  0
 11 13  1  0
 11 14  1  0
 15  6  1  6
 15 16  2  0
 15 17  1  0
 15 18  1  0
 19 18  1  6
 19 20  2  0
 19 21  1  0
 19 22  1  0
  1 23  1  6
  2 24  1  6
  3 25  1  6
  4 26  1  1
  5 27  1  6
  5 28  1  0
  7 29  1  0
  8 30  1  0
 13 31  1  0
 14 32  1  0
 17 33  1  0
 21 34  1  0
 22 35  1  0
M  END
