7SSM_B7L_A_4000
     RDKit          3D

 37 40  0  0  0  0  0  0  0  0999 V2000
  -10.7334  -26.1239   -1.6379 C   0  0  0  0  0  0  0  0  0  0  0  0
  -13.5107  -19.6195    1.1359 C   0  0  0  0  0  0  0  0  0  0  0  0
   -9.9143  -23.6221    1.1288 C   0  0  0  0  0  0  0  0  0  0  0  0
  -13.8796  -21.0188   -0.4904 C   0  0  0  0  0  0  0  0  0  0  0  0
  -12.7098  -19.9258   -2.2268 C   0  0  0  0  0  0  0  0  0  0  0  0
  -13.0498  -20.9723   -3.0942 C   0  0  0  0  0  0  0  0  0  0  0  0
  -13.8153  -22.0447   -2.5956 C   0  0  0  0  0  0  0  0  0  0  0  0
  -10.6622  -24.5316    0.2340 C   0  0  0  0  0  0  0  0  0  0  0  0
  -10.0076  -25.2605   -0.7877 C   0  0  0  0  0  0  0  0  0  0  0  0
  -14.1512  -20.8252    0.8484 C   0  0  0  0  0  0  0  0  0  0  0  0
  -14.8963  -21.6749    1.7980 C   0  0  0  0  0  0  0  0  0  0  0  0
  -15.6653  -22.8007    1.3504 N   0  0  0  0  0  0  0  0  0  0  0  0
  -14.8623  -21.3902    3.0260 O   0  0  0  0  0  0  0  0  0  0  0  0
  -15.2955  -24.1658    1.7214 C   0  0  2  0  0  0  0  0  0  0  0  0
  -14.0777  -24.6030    0.9704 C   0  0  0  0  0  0  0  0  0  0  0  0
  -12.8632  -24.1467    1.2153 O   0  0  0  0  0  0  0  0  0  0  0  0
  -12.0472  -24.7101    0.3563 C   0  0  0  0  0  0  0  0  0  0  0  0
  -12.7441  -25.5513   -0.4732 C   0  0  0  0  0  0  0  0  0  0  0  0
  -14.0656  -25.4960   -0.0958 C   0  0  0  0  0  0  0  0  0  0  0  0
  -12.1215  -26.2757   -1.4846 C   0  0  0  0  0  0  0  0  0  0  0  0
  -10.5612  -22.9792    2.1806 O   0  0  0  0  0  0  0  0  0  0  0  0
   -8.6832  -23.4210    0.9462 O   0  0  0  0  0  0  0  0  0  0  0  0
  -12.9060  -19.1331    0.0246 N   0  0  0  0  0  0  0  0  0  0  0  0
  -13.1438  -19.9984   -0.9455 N   0  0  0  0  0  0  0  0  0  0  0  0
  -14.2201  -22.0586   -1.2920 N   0  0  0  0  0  0  0  0  0  0  0  0
  -10.2165  -26.6727   -2.4143 H   0  0  0  0  0  0  0  0  0  0  0  0
  -13.4864  -19.1270    2.0990 H   0  0  0  0  0  0  0  0  0  0  0  0
  -12.1141  -19.0885   -2.5677 H   0  0  0  0  0  0  0  0  0  0  0  0
  -12.7254  -20.9596   -4.1266 H   0  0  0  0  0  0  0  0  0  0  0  0
  -14.0828  -22.8651   -3.2479 H   0  0  0  0  0  0  0  0  0  0  0  0
   -8.9388  -25.1649   -0.9322 H   0  0  0  0  0  0  0  0  0  0  0  0
  -16.5316  -22.6421    0.7901 H   0  0  0  0  0  0  0  0  0  0  0  0
  -16.1390  -24.8548    1.4999 H   0  0  0  0  0  0  0  0  0  0  0  0
  -15.0806  -24.2080    2.8106 H   0  0  0  0  0  0  0  0  0  0  0  0
  -14.9046  -26.0210   -0.5334 H   0  0  0  0  0  0  0  0  0  0  0  0
  -12.6859  -26.9343   -2.1324 H   0  0  0  0  0  0  0  0  0  0  0  0
  -10.0472  -22.6719    2.9978 H   0  0  0  0  0  0  0  0  0  0  0  0
  5  6  2  0
  6  7  1  0
  3  8  1  0
  1  9  2  0
  8  9  1  0
  2 10  1  0
  4 10  2  0
 10 11  1  0
 11 12  1  0
 11 13  2  0
 12 14  1  0
 14 15  1  0
 15 16  1  0
 16 17  1  0
  8 17  2  0
 17 18  1  0
 15 19  2  0
 18 19  1  0
 18 20  2  0
  1 20  1  0
  3 21  1  0
  3 22  2  0
  2 23  2  0
 23 24  1  0
  4 24  1  0
  5 24  1  0
  4 25  1  0
  7 25  2  0
  1 26  1  0
  2 27  1  0
  5 28  1  0
  6 29  1  0
  7 30  1  0
  9 31  1  0
 12 32  1  0
 14 33  1  1
 14 34  1  0
 19 35  1  0
 20 36  1  0
 21 37  1  0
M  END
