7XQZ_FPF_A_601
     RDKit          3D

 52 51  0  0  0  0  0  0  0  0999 V2000
   -0.3377    0.5685    2.8350 C   0  0  0  0  0  0  0  0  0  0  0  0
   -0.8028    0.5702    1.5057 O   0  0  0  0  0  0  0  0  0  0  0  0
    0.6645   -0.5428    2.9983 C   0  0  0  0  0  0  0  0  0  0  0  0
    1.9710   -0.1857    3.1381 F   0  0  0  0  0  0  0  0  0  0  0  0
    0.3171   -1.8545    2.9946 C   0  0  0  0  0  0  0  0  0  0  0  0
   -1.1260   -2.2844    2.8574 C   0  0  0  0  0  0  0  0  0  0  0  0
    1.3832   -2.9348    3.0596 C   0  0  0  0  0  0  0  0  0  0  0  0
    1.5794   -3.6107    1.6945 C   0  0  0  0  0  0  0  0  0  0  0  0
    2.0445   -2.6261    0.6467 C   0  0  0  0  0  0  0  0  0  0  0  0
    1.8725   -2.8048   -0.6812 C   0  0  0  0  0  0  0  0  0  0  0  0
    1.2493   -4.0642   -1.2350 C   0  0  0  0  0  0  0  0  0  0  0  0
    2.2881   -1.7010   -1.6339 C   0  0  0  0  0  0  0  0  0  0  0  0
    1.4216   -0.4422   -1.4686 C   0  0  0  0  0  0  0  0  0  0  0  0
   -0.0460   -0.7389   -1.6721 C   0  0  0  0  0  0  0  0  0  0  0  0
   -0.6813   -0.6830   -2.8619 C   0  0  0  0  0  0  0  0  0  0  0  0
    0.0244   -0.2530   -4.1254 C   0  0  0  0  0  0  0  0  0  0  0  0
   -2.1424   -1.0465   -2.9121 C   0  0  0  0  0  0  0  0  0  0  0  0
   -2.1812    1.5714    1.4016 P   0  0  1  0  0  5  0  0  0  0  0  0
   -3.3159    0.9249    2.1639 O   0  0  0  0  0  0  0  0  0  0  0  0
   -1.8802    3.0991    2.0762 O   0  0  0  0  0  0  0  0  0  0  0  0
   -2.6536    1.7033   -0.2295 O   0  0  0  0  0  0  0  0  0  0  0  0
   -1.5404    2.7176   -1.0239 P   0  0  0  0  0  5  0  0  0  0  0  0
   -1.7754    2.5648   -2.6927 O   0  0  0  0  0  0  0  0  0  0  0  0
   -1.8164    4.3273   -0.5779 O   0  0  0  0  0  0  0  0  0  0  0  0
   -0.1141    2.3337   -0.6928 O   0  0  0  0  0  0  0  0  0  0  0  0
   -1.1532    0.4290    3.5804 H   0  0  0  0  0  0  0  0  0  0  0  0
    0.1724    1.5322    3.0503 H   0  0  0  0  0  0  0  0  0  0  0  0
   -1.5408   -1.9316    1.8901 H   0  0  0  0  0  0  0  0  0  0  0  0
   -1.7287   -1.8753    3.6949 H   0  0  0  0  0  0  0  0  0  0  0  0
   -1.2177   -3.3905    2.8859 H   0  0  0  0  0  0  0  0  0  0  0  0
    1.0685   -3.7040    3.7973 H   0  0  0  0  0  0  0  0  0  0  0  0
    2.3568   -2.5379    3.4206 H   0  0  0  0  0  0  0  0  0  0  0  0
    0.6179   -4.0776    1.3943 H   0  0  0  0  0  0  0  0  0  0  0  0
    2.3362   -4.4182    1.7881 H   0  0  0  0  0  0  0  0  0  0  0  0
    2.5217   -1.7117    0.9894 H   0  0  0  0  0  0  0  0  0  0  0  0
    0.1897   -4.1351   -0.9123 H   0  0  0  0  0  0  0  0  0  0  0  0
    1.2647   -4.0721   -2.3447 H   0  0  0  0  0  0  0  0  0  0  0  0
    1.8089   -4.9539   -0.8775 H   0  0  0  0  0  0  0  0  0  0  0  0
    3.3513   -1.4374   -1.4442 H   0  0  0  0  0  0  0  0  0  0  0  0
    2.2299   -2.0461   -2.6873 H   0  0  0  0  0  0  0  0  0  0  0  0
    1.5566   -0.0326   -0.4448 H   0  0  0  0  0  0  0  0  0  0  0  0
    1.7725    0.3474   -2.1652 H   0  0  0  0  0  0  0  0  0  0  0  0
   -0.6067   -1.0472   -0.7926 H   0  0  0  0  0  0  0  0  0  0  0  0
   -0.6507   -0.3024   -5.0047 H   0  0  0  0  0  0  0  0  0  0  0  0
    0.8908   -0.9159   -4.3261 H   0  0  0  0  0  0  0  0  0  0  0  0
    0.3736    0.7959   -4.0245 H   0  0  0  0  0  0  0  0  0  0  0  0
   -2.7197   -0.3759   -2.2413 H   0  0  0  0  0  0  0  0  0  0  0  0
   -2.2784   -2.0972   -2.5786 H   0  0  0  0  0  0  0  0  0  0  0  0
   -2.5556   -0.9498   -3.9376 H   0  0  0  0  0  0  0  0  0  0  0  0
   -0.9387    3.3059    1.8506 H   0  0  0  0  0  0  0  0  0  0  0  0
   -1.0845    3.1450   -3.1011 H   0  0  0  0  0  0  0  0  0  0  0  0
   -1.1031    4.8428   -1.0324 H   0  0  0  0  0  0  0  0  0  0  0  0
  1  2  1  0
  1  3  1  0
  3  4  1  0
  3  5  2  0
  5  6  1  0
  5  7  1  0
  7  8  1  0
  8  9  1  0
  9 10  2  0
 10 11  1  0
 10 12  1  0
 12 13  1  0
 13 14  1  0
 14 15  2  0
 15 16  1  0
 15 17  1  0
 18  2  1  6
 18 19  2  0
 18 20  1  0
 18 21  1  0
 21 22  1  0
 22 23  1  0
 22 24  1  0
 22 25  2  0
  1 26  1  0
  1 27  1  0
  6 28  1  0
  6 29  1  0
  6 30  1  0
  7 31  1  0
  7 32  1  0
  8 33  1  0
  8 34  1  0
  9 35  1  0
 11 36  1  0
 11 37  1  0
 11 38  1  0
 12 39  1  0
 12 40  1  0
 13 41  1  0
 13 42  1  0
 14 43  1  0
 16 44  1  0
 16 45  1  0
 16 46  1  0
 17 47  1  0
 17 48  1  0
 17 49  1  0
 20 50  1  0
 23 51  1  0
 24 52  1  0
M  END
