7XI7_4RI_A_201
     RDKit          3D

 20 21  0  0  0  0  0  0  0  0999 V2000
   -3.2338  -16.6113    1.7499 C   0  0  0  0  0  0  0  0  0  0  0  0
   -2.8333  -17.6280    0.9162 C   0  0  0  0  0  0  0  0  0  0  0  0
   -2.4978  -18.8733    1.4448 C   0  0  0  0  0  0  0  0  0  0  0  0
   -2.5692  -19.0757    2.7883 N   0  0  0  0  0  0  0  0  0  0  0  0
   -3.2823  -16.8817    3.0812 N   0  0  0  0  0  0  0  0  0  0  0  0
   -1.2844   -9.8137   -0.4675 C   0  0  0  0  0  0  0  0  0  0  0  0
   -2.2972  -10.9272   -0.5513 C   0  0  0  0  0  0  0  0  0  0  0  0
   -1.8496  -12.0390    0.3620 C   0  0  0  0  0  0  0  0  0  0  0  0
   -2.9037  -13.1170    0.4252 C   0  0  0  0  0  0  0  0  0  0  0  0
   -2.4927  -14.2599    1.2978 C   0  0  0  0  0  0  0  0  0  0  0  0
   -3.6119  -15.2819    1.2873 C   0  0  0  0  0  0  0  0  0  0  0  0
   -2.9648  -18.0712    3.6136 C   0  0  0  0  0  0  0  0  0  0  0  0
   -3.0396  -18.2936    5.0167 N   0  0  0  0  0  0  0  0  0  0  0  0
   -2.0801  -19.9399    0.5788 N   0  0  0  0  0  0  0  0  0  0  0  0
   -2.7364  -17.4876   -0.5226 C   0  0  0  0  0  0  0  0  0  0  0  0
   -1.5766  -16.9557   -1.0889 C   0  0  0  0  0  0  0  0  0  0  0  0
   -1.4199  -16.8109   -2.4524 C   0  0  0  0  0  0  0  0  0  0  0  0
   -2.4408  -17.2031   -3.2886 C   0  0  0  0  0  0  0  0  0  0  0  0
   -3.6103  -17.7353   -2.7785 C   0  0  0  0  0  0  0  0  0  0  0  0
   -3.7264  -17.8637   -1.4068 C   0  0  0  0  0  0  0  0  0  0  0  0
  1  2  2  0
  2  3  1  0
  3  4  2  0
  1  5  1  0
  7  6  1  6
  8  7  1  6
  9  8  1  6
  9 10  1  0
 10 11  1  1
 11  1  1  6
  5 12  2  0
  4 12  1  0
 12 13  1  0
  3 14  1  0
  2 15  1  0
 15 16  2  0
 16 17  1  0
 17 18  2  0
 18 19  1  0
 15 20  1  0
 19 20  2  0
M  END
$$$$
