7Z1Q_NIO_A_301
     RDKit          3D

  9  9  0  0  0  0  0  0  0  0999 V2000
    6.7707   45.8337    3.1646 N   0  0  0  0  0  0  0  0  0  0  0  0
    7.6626   46.4238    3.9774 C   0  0  0  0  0  0  0  0  0  0  0  0
    7.3270   47.4906    4.7974 C   0  0  0  0  0  0  0  0  0  0  0  0
    6.0368   47.9726    4.7884 C   0  0  0  0  0  0  0  0  0  0  0  0
    5.1382   47.3505    3.9453 C   0  0  0  0  0  0  0  0  0  0  0  0
    5.4844   46.2866    3.1313 C   0  0  0  0  0  0  0  0  0  0  0  0
    8.3210   48.1054    5.6659 C   0  0  0  0  0  0  0  0  0  0  0  0
    9.4957   47.6079    5.7440 O   0  0  0  0  0  0  0  0  0  0  0  0
    8.0710   49.2138    6.4258 O   0  0  0  0  0  0  0  0  0  0  0  0
  1  2  2  0
  2  3  1  0
  3  4  2  0
  4  5  1  0
  1  6  1  0
  5  6  2  0
  3  7  1  0
  7  8  2  0
  7  9  1  0
M  END
$$$$
