7ZF0_DHR_A_508
     RDKit          3D

 11 11  0  0  0  0  0  0  0  0999 V2000
   14.0949   51.7677   64.4455 N   0  0  0  0  0  0  0  0  0  0  0  0
   13.8525   50.6610   64.6823 C   0  0  0  0  0  0  0  0  0  0  0  0
   12.6664   48.7576   63.9225 C   0  0  0  0  0  0  0  0  0  0  0  0
   11.2902   48.7397   64.1583 C   0  0  0  0  0  0  0  0  0  0  0  0
   13.1503   48.3218   62.6939 C   0  0  0  0  0  0  0  0  0  0  0  0
   12.3245   47.8690   61.6900 C   0  0  0  0  0  0  0  0  0  0  0  0
   10.4349   48.2858   63.1574 C   0  0  0  0  0  0  0  0  0  0  0  0
   10.9558   47.8635   61.9563 C   0  0  0  0  0  0  0  0  0  0  0  0
   10.0619   47.4188   60.9873 O   0  0  0  0  0  0  0  0  0  0  0  0
   13.5634   49.2395   64.9871 C   0  0  2  0  0  0  0  0  0  0  0  0
   13.0076   49.2128   66.2593 O   0  0  0  0  0  0  0  0  0  0  0  0
  1  2  3  0
  3  4  2  0
  3  5  1  0
  5  6  2  0
  4  7  1  0
  6  8  1  0
  7  8  2  0
  8  9  1  0
  2 10  1  0
  3 10  1  0
 10 11  1  1
M  END
$$$$
