7TXK_LW8_A_601
     RDKit          3D

 31 31  0  0  0  0  0  0  0  0999 V2000
   17.6671   53.9018   76.9366 O   0  0  0  0  0  0  0  0  0  0  0  0
   18.7297   54.7943   76.8259 C   0  0  0  0  0  0  0  0  0  0  0  0
   18.4927   56.0281   76.7350 O   0  0  0  0  0  0  0  0  0  0  0  0
   20.1516   54.2622   76.8087 C   0  0  1  0  0  0  0  0  0  0  0  0
   20.2549   52.8116   76.3876 N   0  0  2  0  0  4  0  0  0  0  0  0
   21.0022   52.6112   75.1196 C   0  0  2  0  0  0  0  0  0  0  0  0
   18.8839   52.2668   76.1920 C   0  0  1  0  0  0  0  0  0  0  0  0
   20.8992   51.9981   77.4502 C   0  0  1  0  0  0  0  0  0  0  0  0
   21.1386   55.2758   76.1403 C   0  0  2  0  0  0  0  0  0  0  0  0
   21.3826   56.5712   76.8641 C   0  0  0  0  0  0  0  0  0  0  0  0
   22.5728   56.9499   77.3716 N   0  0  0  0  0  0  0  0  0  0  0  0
   22.3233   58.1077   78.0110 C   0  0  0  0  0  0  0  0  0  0  0  0
   23.4645   58.9652   78.8090 S   0  0  0  0  0  0  0  0  0  0  0  0
   21.0276   58.4677   77.9486 N   0  0  0  0  0  0  0  0  0  0  0  0
   20.4255   57.4971   77.2376 C   0  0  0  0  0  0  0  0  0  0  0  0
   17.3499   53.3693   76.1355 H   0  0  0  0  0  0  0  0  0  0  0  0
   20.4704   54.3071   77.8771 H   0  0  0  0  0  0  0  0  0  0  0  0
   20.4994   53.1028   74.2607 H   0  0  0  0  0  0  0  0  0  0  0  0
   21.0679   51.5292   74.8648 H   0  0  0  0  0  0  0  0  0  0  0  0
   22.0389   52.9826   75.1827 H   0  0  0  0  0  0  0  0  0  0  0  0
   18.7132   51.3662   76.8237 H   0  0  0  0  0  0  0  0  0  0  0  0
   18.1056   53.0185   76.4496 H   0  0  0  0  0  0  0  0  0  0  0  0
   18.7103   51.9704   75.1324 H   0  0  0  0  0  0  0  0  0  0  0  0
   21.4509   52.6345   78.1721 H   0  0  0  0  0  0  0  0  0  0  0  0
   20.1458   51.3985   78.0085 H   0  0  0  0  0  0  0  0  0  0  0  0
   21.6470   51.2906   77.0254 H   0  0  0  0  0  0  0  0  0  0  0  0
   20.8246   55.4953   75.0990 H   0  0  0  0  0  0  0  0  0  0  0  0
   22.1236   54.7704   76.0307 H   0  0  0  0  0  0  0  0  0  0  0  0
   23.4846   56.4457   77.3085 H   0  0  0  0  0  0  0  0  0  0  0  0
   20.5764   59.3050   78.3798 H   0  0  0  0  0  0  0  0  0  0  0  0
   19.3633   57.4527   77.0364 H   0  0  0  0  0  0  0  0  0  0  0  0
  1  2  1  0
  2  3  2  0
  2  4  1  0
  5  4  1  1
  5  6  1  0
  5  7  1  0
  5  8  1  0
  4  9  1  0
  9 10  1  0
 10 11  1  0
 11 12  1  0
 12 13  2  0
 12 14  1  0
 10 15  2  0
 14 15  1  0
  1 16  1  0
  4 17  1  1
  6 18  1  6
  6 19  1  0
  6 20  1  0
  7 21  1  1
  7 22  1  0
  7 23  1  0
  8 24  1  1
  8 25  1  0
  8 26  1  0
  9 27  1  6
  9 28  1  0
 11 29  1  0
 14 30  1  0
 15 31  1  0
M  CHG  1   5   1
M  END
