7QPP_VDX_A_501
     RDKit          3D

 74 76  0  0  0  0  0  0  0  0999 V2000
    3.2331   25.2695   32.3682 O   0  0  0  0  0  0  0  0  0  0  0  0
   -5.5573   26.6667   37.7872 O   0  0  0  0  0  0  0  0  0  0  0  0
    1.7930   22.7706   32.8648 C   0  0  1  0  0  0  0  0  0  0  0  0
    3.0955   22.8755   32.0649 C   0  0  0  0  0  0  0  0  0  0  0  0
    3.2216   24.1821   31.4141 C   0  0  1  0  0  0  0  0  0  0  0  0
    1.9999   24.4307   30.4712 C   0  0  0  0  0  0  0  0  0  0  0  0
    0.6742   24.2854   31.1320 C   0  0  0  0  0  0  0  0  0  0  0  0
   -0.4060   25.0482   30.8075 C   0  0  0  0  0  0  0  0  0  0  0  0
   -1.7556   25.0135   31.4881 C   0  0  0  0  0  0  0  0  0  0  0  0
   -1.8392   24.8589   32.8232 C   0  0  0  0  0  0  0  0  0  0  0  0
   -0.7037   24.9265   33.8148 C   0  0  0  0  0  0  0  0  0  0  0  0
    0.5714   23.0239   32.0487 C   0  0  0  0  0  0  0  0  0  0  0  0
   -0.8115   26.1121   34.7468 C   0  0  0  0  0  0  0  0  0  0  0  0
   -2.1225   26.2497   35.3510 C   0  0  0  0  0  0  0  0  0  0  0  0
   -3.3082   26.2444   34.3176 C   0  0  1  0  0  0  0  0  0  0  0  0
   -3.1771   25.1440   33.4012 C   0  0  1  0  0  0  0  0  0  0  0  0
   -4.5051   24.8883   32.6914 C   0  0  0  0  0  0  0  0  0  0  0  0
   -5.5545   25.6397   33.6691 C   0  0  0  0  0  0  0  0  0  0  0  0
   -4.8160   26.0294   34.8519 C   0  0  2  0  0  0  0  0  0  0  0  0
   -3.1663   27.5206   33.4550 C   0  0  0  0  0  0  0  0  0  0  0  0
   -0.4974   22.2114   31.9671 C   0  0  0  0  0  0  0  0  0  0  0  0
   -5.3738   27.2144   35.7100 C   0  0  2  0  0  0  0  0  0  0  0  0
   -6.1163   28.1150   34.7088 C   0  0  0  0  0  0  0  0  0  0  0  0
   -4.3585   28.0585   36.4753 C   0  0  0  0  0  0  0  0  0  0  0  0
   -3.1117   27.1845   36.9101 C   0  0  0  0  0  0  0  0  0  0  0  0
   -3.5195   25.6961   36.9070 C   0  0  0  0  0  0  0  0  0  0  0  0
   -4.9972   25.4808   37.3100 C   0  0  2  0  0  0  0  0  0  0  0  0
   -5.8361   25.0213   36.1152 C   0  0  0  0  0  0  0  0  0  0  0  0
   -5.0482   24.4442   38.4146 C   0  0  0  0  0  0  0  0  0  0  0  0
    1.6775   21.5309   33.5555 O   0  0  0  0  0  0  0  0  0  0  0  0
    3.9791   25.1569   32.9780 H   0  0  0  0  0  0  0  0  0  0  0  0
   -5.5314   27.3404   37.0897 H   0  0  0  0  0  0  0  0  0  0  0  0
    1.8555   23.5551   33.5898 H   0  0  0  0  0  0  0  0  0  0  0  0
    3.1062   22.1116   31.3158 H   0  0  0  0  0  0  0  0  0  0  0  0
    3.9157   22.7566   32.7416 H   0  0  0  0  0  0  0  0  0  0  0  0
    4.1461   24.1616   30.8759 H   0  0  0  0  0  0  0  0  0  0  0  0
    2.0508   23.7290   29.6651 H   0  0  0  0  0  0  0  0  0  0  0  0
    2.0684   25.4471   30.1440 H   0  0  0  0  0  0  0  0  0  0  0  0
   -0.2930   25.7113   30.0248 H   0  0  0  0  0  0  0  0  0  0  0  0
   -2.6166   25.1087   30.9270 H   0  0  0  0  0  0  0  0  0  0  0  0
    0.2177   24.9979   33.2755 H   0  0  0  0  0  0  0  0  0  0  0  0
   -0.7447   24.0406   34.4134 H   0  0  0  0  0  0  0  0  0  0  0  0
   -0.5988   27.0013   34.1910 H   0  0  0  0  0  0  0  0  0  0  0  0
   -0.1115   25.9557   35.5409 H   0  0  0  0  0  0  0  0  0  0  0  0
   -2.1493   27.1741   35.8891 H   0  0  0  0  0  0  0  0  0  0  0  0
   -2.2614   25.3991   35.9852 H   0  0  0  0  0  0  0  0  0  0  0  0
   -3.0391   24.2081   33.9010 H   0  0  0  0  0  0  0  0  0  0  0  0
   -4.7159   23.8414   32.6249 H   0  0  0  0  0  0  0  0  0  0  0  0
   -4.5297   25.2368   31.6800 H   0  0  0  0  0  0  0  0  0  0  0  0
   -6.3516   24.9767   33.9337 H   0  0  0  0  0  0  0  0  0  0  0  0
   -5.9868   26.4916   33.1873 H   0  0  0  0  0  0  0  0  0  0  0  0
   -4.9000   25.2625   35.5932 H   0  0  0  0  0  0  0  0  0  0  0  0
   -2.1526   27.6180   33.1263 H   0  0  0  0  0  0  0  0  0  0  0  0
   -3.4361   28.3765   34.0376 H   0  0  0  0  0  0  0  0  0  0  0  0
   -3.8120   27.4500   32.6046 H   0  0  0  0  0  0  0  0  0  0  0  0
   -0.5607   21.3796   32.5745 H   0  0  0  0  0  0  0  0  0  0  0  0
   -1.2540   22.4200   31.2969 H   0  0  0  0  0  0  0  0  0  0  0  0
   -5.9740   26.7890   36.4872 H   0  0  0  0  0  0  0  0  0  0  0  0
   -5.4250   28.4840   33.9801 H   0  0  0  0  0  0  0  0  0  0  0  0
   -6.5587   28.9382   35.2296 H   0  0  0  0  0  0  0  0  0  0  0  0
   -6.8818   27.5493   34.2199 H   0  0  0  0  0  0  0  0  0  0  0  0
   -4.8256   28.4618   37.3493 H   0  0  0  0  0  0  0  0  0  0  0  0
   -4.0180   28.8466   35.8368 H   0  0  0  0  0  0  0  0  0  0  0  0
   -2.7988   27.4692   37.8928 H   0  0  0  0  0  0  0  0  0  0  0  0
   -2.3034   27.3406   36.2266 H   0  0  0  0  0  0  0  0  0  0  0  0
   -2.8960   25.1691   37.5986 H   0  0  0  0  0  0  0  0  0  0  0  0
   -3.4002   25.3305   35.9084 H   0  0  0  0  0  0  0  0  0  0  0  0
   -5.7921   25.7609   35.3429 H   0  0  0  0  0  0  0  0  0  0  0  0
   -6.8520   24.8873   36.4230 H   0  0  0  0  0  0  0  0  0  0  0  0
   -5.4508   24.0947   35.7442 H   0  0  0  0  0  0  0  0  0  0  0  0
   -4.4586   24.7767   39.2432 H   0  0  0  0  0  0  0  0  0  0  0  0
   -4.6604   23.5157   38.0507 H   0  0  0  0  0  0  0  0  0  0  0  0
   -6.0616   24.3083   38.7296 H   0  0  0  0  0  0  0  0  0  0  0  0
    1.6196   20.8069   32.9126 H   0  0  0  0  0  0  0  0  0  0  0  0
  3  4  1  0
  5  1  1  0
  4  5  1  0
  5  6  1  0
  6  7  1  0
  7  8  2  3
  8  9  1  0
  9 10  2  3
 10 11  1  0
  3 12  1  0
  7 12  1  0
 11 13  1  0
 13 14  1  0
 14 15  1  0
 10 16  1  0
 15 16  1  0
 16 17  1  0
 17 18  1  0
 15 19  1  0
 19 18  1  0
 15 20  1  6
 12 21  2  3
 19 22  1  0
 22 23  1  0
 22 24  1  0
 24 25  1  0
 25 26  1  0
 27  2  1  1
 26 27  1  0
 27 28  1  0
 27 29  1  0
  3 30  1  0
  1 31  1  0
  2 32  1  0
  3 33  1  1
  4 34  1  0
  4 35  1  0
  5 36  1  6
  6 37  1  0
  6 38  1  0
  8 39  1  0
  9 40  1  0
 11 41  1  0
 11 42  1  0
 13 43  1  0
 13 44  1  0
 14 45  1  0
 14 46  1  0
 16 47  1  1
 17 48  1  0
 17 49  1  0
 18 50  1  0
 18 51  1  0
 19 52  1  1
 20 53  1  0
 20 54  1  0
 20 55  1  0
 21 56  1  0
 21 57  1  0
 22 58  1  1
 23 59  1  0
 23 60  1  0
 23 61  1  0
 24 62  1  0
 24 63  1  0
 25 64  1  0
 25 65  1  0
 26 66  1  0
 26 67  1  0
 28 68  1  0
 28 69  1  0
 28 70  1  0
 29 71  1  0
 29 72  1  0
 29 73  1  0
 30 74  1  0
M  END
