
     RDKit          3D

 28 30  0  0  0  0  0  0  0  0999 V2000
  -33.8343   -2.1063   23.5743 O   0  0  0  0  0  0  0  0  0  0  0  0
  -34.3001   -3.4246   23.2985 C   0  0  2  0  0  0  0  0  0  0  0  0
  -33.3188   -4.5212   23.6937 C   0  0  1  0  0  0  0  0  0  0  0  0
  -33.3739   -4.8632   25.1767 C   0  0  0  0  0  0  0  0  0  0  0  0
  -32.6201   -3.8964   25.8975 O   0  0  0  0  0  0  0  0  0  0  0  0
  -31.3224   -4.3775   26.7028 P   0  0  0  0  0  5  0  0  0  0  0  0
  -31.4150   -3.5072   28.0458 O   0  0  0  0  0  0  0  0  0  0  0  0
  -30.0186   -4.1424   26.0260 O   0  0  0  0  0  0  0  0  0  0  0  0
  -31.6185   -5.8486   27.2033 O   0  0  0  0  0  0  0  0  0  0  0  0
  -30.7950   -6.6298   28.3132 P   0  0  0  0  0  5  0  0  0  0  0  0
  -31.2030   -5.9432   29.6954 O   0  0  0  0  0  0  0  0  0  0  0  0
  -29.3305   -5.9955   28.1417 O   0  0  0  0  0  0  0  0  0  0  0  0
  -30.7264   -8.5408   28.2644 S   0  0  0  0  0  0  0  0  0  0  0  0
  -33.7000   -5.6729   22.9045 O   0  0  0  0  0  0  0  0  0  0  0  0
  -34.1932   -5.1514   21.6411 C   0  0  1  0  0  0  0  0  0  0  0  0
  -35.3989   -5.8636   21.2756 N   0  0  0  0  0  0  0  0  0  0  0  0
  -36.3511   -5.4064   20.4005 C   0  0  0  0  0  0  0  0  0  0  0  0
  -37.3605   -6.2436   20.2865 N   0  0  0  0  0  0  0  0  0  0  0  0
  -37.0468   -7.2742   21.1404 C   0  0  0  0  0  0  0  0  0  0  0  0
  -37.7026   -8.4507   21.4872 C   0  0  0  0  0  0  0  0  0  0  0  0
  -38.9233   -8.7912   20.9546 O   0  0  0  0  0  0  0  0  0  0  0  0
  -37.1605   -9.2932   22.3842 N   0  0  0  0  0  0  0  0  0  0  0  0
  -35.9743   -8.9670   22.9262 C   0  0  0  0  0  0  0  0  0  0  0  0
  -35.4540   -9.8626   23.8405 N   0  0  0  0  0  0  0  0  0  0  0  0
  -35.2344   -7.8699   22.6549 N   0  0  0  0  0  0  0  0  0  0  0  0
  -35.8308   -7.0647   21.7620 C   0  0  0  0  0  0  0  0  0  0  0  0
  -34.4054   -3.6414   21.7964 C   0  0  2  0  0  0  0  0  0  0  0  0
  -33.3552   -2.9227   21.1292 O   0  0  0  0  0  0  0  0  0  0  0  0
  2  1  1  6
  2  3  1  0
  3  4  1  1
  4  5  1  0
  6  5  1  0
  6  7  1  0
  6  8  2  0
  6  9  1  0
  9 10  1  0
 10 11  1  0
 10 12  1  0
 10 13  2  0
  3 14  1  0
 14 15  1  0
 15 16  1  1
 16 17  4  0
 17 18  4  0
 18 19  4  0
 19 20  4  0
 20 21  1  0
 20 22  4  0
 22 23  4  0
 23 24  1  0
 23 25  4  0
 25 26  4  0
 16 26  4  0
 19 26  4  0
  2 27  1  0
 15 27  1  0
 27 28  1  6
M  END
