7M6K_YRJ_B_701
     RDKit          3D

 33 35  0  0  0  0  0  0  0  0999 V2000
   22.8770   -5.4090  -31.1150 C   0  0  0  0  0  0  0  0  0  0  0  0
   23.4320   -3.8140  -32.7560 C   0  0  0  0  0  0  0  0  0  0  0  0
   25.2280   -4.2720  -34.4270 C   0  0  0  0  0  0  0  0  0  0  0  0
   26.9980   -4.9980  -35.9600 C   0  0  0  0  0  0  0  0  0  0  0  0
   28.6840   -4.8880  -38.4150 C   0  0  0  0  0  0  0  0  0  0  0  0
   30.6680   -5.6540  -39.4620 C   0  0  0  0  0  0  0  0  0  0  0  0
   23.4190   -9.8070  -31.1400 C   0  0  1  0  0  0  0  0  0  0  0  0
   22.8500   -8.4020  -31.2010 C   0  0  2  0  0  0  0  0  0  0  0  0
   23.9070   -7.5620  -30.9380 C   0  0  2  0  0  0  0  0  0  0  0  0
   24.8370   -9.5380  -31.7960 C   0  0  1  0  0  0  0  0  0  0  0  0
   24.6550   -9.7640  -33.3180 C   0  0  0  0  0  0  0  0  0  0  0  0
   22.6980   -4.1860  -31.6900 C   0  0  0  0  0  0  0  0  0  0  0  0
   24.3540   -4.7350  -33.2200 C   0  0  0  0  0  0  0  0  0  0  0  0
   24.5080   -5.9560  -32.6120 C   0  0  0  0  0  0  0  0  0  0  0  0
   28.6660   -6.0290  -37.6210 C   0  0  0  0  0  0  0  0  0  0  0  0
   29.7040   -4.6970  -39.3200 C   0  0  0  0  0  0  0  0  0  0  0  0
   30.6290   -6.8110  -38.7020 C   0  0  0  0  0  0  0  0  0  0  0  0
   29.6020   -7.0080  -37.7840 C   0  0  0  0  0  0  0  0  0  0  0  0
   23.7870   -6.2560  -31.5910 N   0  0  0  0  0  0  0  0  0  0  0  0
   25.8240   -5.3300  -35.1710 N   0  0  0  0  0  0  0  0  0  0  0  0
   27.5330   -6.1670  -36.7250 N   0  0  0  0  0  0  0  0  0  0  0  0
   31.7100   -5.4470  -40.4120 N   0  0  0  0  0  0  0  0  0  0  0  0
   23.5750  -10.2820  -29.8050 O   0  0  0  0  0  0  0  0  0  0  0  0
   21.8260   -8.2500  -30.3030 O   0  0  0  0  0  0  0  0  0  0  0  0
   25.1790   -8.2840  -31.5590 O   0  0  0  0  0  0  0  0  0  0  0  0
   25.8950   -9.5080  -33.9080 O   0  0  0  0  0  0  0  0  0  0  0  0
   24.8540   -8.0020  -35.7240 O   0  0  0  0  0  0  0  0  0  0  0  0
   25.3370  -10.3930  -36.2510 O   0  0  0  0  0  0  0  0  0  0  0  0
   27.2570   -8.8350  -35.8990 O   0  0  0  0  0  0  0  0  0  0  0  0
   27.4670   -3.9230  -35.9510 O   0  0  0  0  0  0  0  0  0  0  0  0
   32.4140   -6.5290  -40.9020 O   0  0  0  0  0  0  0  0  0  0  0  0
   31.9390   -4.3700  -40.7960 O   0  0  0  0  0  0  0  0  0  0  0  0
   25.8350   -9.1640  -35.5140 P   0  0  0  0  0  0  0  0  0  0  0  0
  7  8  1  0
  8  9  1  0
  7 10  1  0
 10 11  1  6
  1 12  2  0
  2 12  1  0
  3 13  1  0
  2 13  2  0
 13 14  1  0
  5 15  2  0
  6 16  2  0
  5 16  1  0
  6 17  1  0
 17 18  2  0
 15 18  1  0
  9 19  1  6
 14 19  2  0
  1 19  1  0
  4 20  1  0
  3 20  1  0
 15 21  1  0
  4 21  1  0
  6 22  1  0
  7 23  1  1
  8 24  1  1
 10 25  1  0
  9 25  1  0
 11 26  1  0
  4 30  2  0
 22 31  1  0
 22 32  2  0
 26 33  1  0
 28 33  2  0
 27 33  1  0
 29 33  1  0
M  CHG  3  19   1  22   1  31  -1
M  END
$$$$
