1GKC_NFH_A_1448
     RDKit          3D

 51 50  0  0  0  0  0  0  0  0999 V2000
   57.6611   24.5141  125.1668 C   0  0  0  0  0  0  0  0  0  0  0  0
   61.2938   24.2341  124.0261 N   0  0  0  0  0  0  0  0  0  0  0  0
   57.1656   23.9821  124.1360 O   0  0  0  0  0  0  0  0  0  0  0  0
   54.3975   24.7015  126.0060 C   0  0  0  0  0  0  0  0  0  0  0  0
   56.7999   25.1200  126.1472 N   0  0  0  0  0  0  0  0  0  0  0  0
   53.6822   25.6748  126.3699 O   0  0  0  0  0  0  0  0  0  0  0  0
   53.9987   23.9070  124.8791 N   0  0  0  0  0  0  0  0  0  0  0  0
   59.1662   24.5326  125.3252 C   0  0  2  0  0  0  0  0  0  0  0  0
   59.6739   25.9411  125.7338 C   0  0  1  0  0  0  0  0  0  0  0  0
   58.9011   27.1224  125.0927 C   0  0  2  0  0  0  0  0  0  0  0  0
   62.0473   24.5731  125.1978 C   0  0  0  0  0  0  0  0  0  0  0  0
   61.5031   24.6103  126.3330 O   0  0  0  0  0  0  0  0  0  0  0  0
   59.8564   23.9442  124.0718 C   0  0  1  0  0  0  0  0  0  0  0  0
   61.9481   24.1261  122.8440 O   0  0  0  0  0  0  0  0  0  0  0  0
   55.6731   24.4046  126.7635 C   0  0  1  0  0  0  0  0  0  0  0  0
   55.5702   24.6858  128.3050 C   0  0  1  0  0  0  0  0  0  0  0  0
   57.9739   27.8212  126.1002 C   0  0  1  0  0  0  0  0  0  0  0  0
   58.0765   26.6176  123.9005 C   0  0  2  0  0  0  0  0  0  0  0  0
   56.3146   23.5789  129.0864 C   0  0  2  0  0  0  0  0  0  0  0  0
   56.2492   26.0365  128.6261 C   0  0  1  0  0  0  0  0  0  0  0  0
   54.1083   24.7374  128.8066 C   0  0  2  0  0  0  0  0  0  0  0  0
   52.8342   24.2522  124.0742 C   0  0  2  0  0  0  0  0  0  0  0  0
   56.9424   26.1269  126.3755 H   0  0  0  0  0  0  0  0  0  0  0  0
   54.5478   23.0592  124.6151 H   0  0  0  0  0  0  0  0  0  0  0  0
   59.3939   23.8403  126.1620 H   0  0  0  0  0  0  0  0  0  0  0  0
   59.6325   26.0376  126.8381 H   0  0  0  0  0  0  0  0  0  0  0  0
   60.7472   26.0344  125.4538 H   0  0  0  0  0  0  0  0  0  0  0  0
   59.6156   27.8741  124.6990 H   0  0  0  0  0  0  0  0  0  0  0  0
   63.1039   24.7894  125.1110 H   0  0  0  0  0  0  0  0  0  0  0  0
   59.3772   24.3881  123.1714 H   0  0  0  0  0  0  0  0  0  0  0  0
   59.6779   22.8524  123.9902 H   0  0  0  0  0  0  0  0  0  0  0  0
   61.5543   23.3300  122.4033 H   0  0  0  0  0  0  0  0  0  0  0  0
   55.8589   23.3113  126.6605 H   0  0  0  0  0  0  0  0  0  0  0  0
   56.9248   27.4865  125.9532 H   0  0  0  0  0  0  0  0  0  0  0  0
   58.2772   27.5871  127.1432 H   0  0  0  0  0  0  0  0  0  0  0  0
   57.9859   28.9202  125.9555 H   0  0  0  0  0  0  0  0  0  0  0  0
   58.5808   26.8778  122.9454 H   0  0  0  0  0  0  0  0  0  0  0  0
   57.0729   27.0943  123.8951 H   0  0  0  0  0  0  0  0  0  0  0  0
   57.9501   25.5144  123.9507 H   0  0  0  0  0  0  0  0  0  0  0  0
   57.1850   23.2037  128.5062 H   0  0  0  0  0  0  0  0  0  0  0  0
   55.6414   22.7220  129.3014 H   0  0  0  0  0  0  0  0  0  0  0  0
   56.6896   23.9663  130.0587 H   0  0  0  0  0  0  0  0  0  0  0  0
   56.1910   26.2600  129.7135 H   0  0  0  0  0  0  0  0  0  0  0  0
   57.3212   26.0160  128.3331 H   0  0  0  0  0  0  0  0  0  0  0  0
   55.7544   26.8703  128.0840 H   0  0  0  0  0  0  0  0  0  0  0  0
   53.4555   25.3006  128.1096 H   0  0  0  0  0  0  0  0  0  0  0  0
   54.0567   25.2462  129.7936 H   0  0  0  0  0  0  0  0  0  0  0  0
   53.6945   23.7166  128.9418 H   0  0  0  0  0  0  0  0  0  0  0  0
   52.1696   24.9333  124.6464 H   0  0  0  0  0  0  0  0  0  0  0  0
   52.2784   23.3303  123.8022 H   0  0  0  0  0  0  0  0  0  0  0  0
   53.1572   24.7640  123.1431 H   0  0  0  0  0  0  0  0  0  0  0  0
  1  3  2  0
  1  5  1  0
  4  6  2  0
  4  7  1  0
  1  8  1  0
  8  9  1  0
  9 10  1  0
  2 11  1  0
 11 12  2  0
  8 13  1  0
  2 13  1  0
  2 14  1  0
  4 15  1  0
 15  5  1  0
 16 15  1  6
 10 17  1  0
 10 18  1  0
 16 19  1  0
 16 20  1  0
 16 21  1  0
  7 22  1  0
  5 23  1  0
  7 24  1  0
  8 25  1  1
  9 26  1  1
  9 27  1  0
 10 28  1  6
 11 29  1  0
 13 30  1  6
 13 31  1  0
 14 32  1  0
 15 33  1  1
 17 34  1  6
 17 35  1  0
 17 36  1  0
 18 37  1  6
 18 38  1  0
 18 39  1  0
 19 40  1  6
 19 41  1  0
 19 42  1  0
 20 43  1  1
 20 44  1  0
 20 45  1  0
 21 46  1  6
 21 47  1  0
 21 48  1  0
 22 49  1  1
 22 50  1  0
 22 51  1  0
M  END
