7XQZ_FPF_A_601
     RDKit          3D

 25 24  0  0  0  0  0  0  0  0999 V2000
  -13.6131   -6.5397  -13.7812 C   0  0  0  0  0  0  0  0  0  0  0  0
  -12.9616   -5.4499  -13.1656 O   0  0  0  0  0  0  0  0  0  0  0  0
  -13.1744   -6.5696  -15.2105 C   0  0  0  0  0  0  0  0  0  0  0  0
  -14.0029   -5.8786  -16.0333 F   0  0  0  0  0  0  0  0  0  0  0  0
  -12.0939   -7.1884  -15.6656 C   0  0  0  0  0  0  0  0  0  0  0  0
  -11.0044   -7.6859  -14.7724 C   0  0  0  0  0  0  0  0  0  0  0  0
  -11.9060   -7.4565  -17.1320 C   0  0  0  0  0  0  0  0  0  0  0  0
  -13.0321   -8.2618  -17.7354 C   0  0  0  0  0  0  0  0  0  0  0  0
  -14.2678   -7.4482  -17.9689 C   0  0  0  0  0  0  0  0  0  0  0  0
  -15.4987   -7.6672  -17.5189 C   0  0  0  0  0  0  0  0  0  0  0  0
  -15.9721   -8.9936  -17.0064 C   0  0  0  0  0  0  0  0  0  0  0  0
  -16.5158   -6.5619  -17.4802 C   0  0  0  0  0  0  0  0  0  0  0  0
  -17.9060   -6.9432  -17.9420 C   0  0  0  0  0  0  0  0  0  0  0  0
  -18.4707   -5.9726  -18.9250 C   0  0  0  0  0  0  0  0  0  0  0  0
  -18.9802   -6.2180  -20.1200 C   0  0  0  0  0  0  0  0  0  0  0  0
  -19.0806   -5.1714  -21.1846 C   0  0  0  0  0  0  0  0  0  0  0  0
  -19.4988   -7.5599  -20.5192 C   0  0  0  0  0  0  0  0  0  0  0  0
  -13.2455   -5.0862  -11.6383 P   0  0  1  0  0  0  0  0  0  0  0  0
  -13.7277   -6.2727  -10.8876 O   0  0  0  0  0  0  0  0  0  0  0  0
  -12.0007   -4.3868  -11.2378 O   0  0  0  0  0  0  0  0  0  0  0  0
  -14.4453   -4.0413  -11.8090 O   0  0  0  0  0  0  0  0  0  0  0  0
  -14.9954   -2.7619  -11.0098 P   0  0  1  0  0  0  0  0  0  0  0  0
  -15.0390   -1.6702  -12.0136 O   0  0  0  0  0  0  0  0  0  0  0  0
  -16.3408   -3.1466  -10.5019 O   0  0  0  0  0  0  0  0  0  0  0  0
  -14.0354   -2.5007   -9.9125 O   0  0  0  0  0  0  0  0  0  0  0  0
  1  2  1  0
  1  3  1  0
  3  4  1  0
  3  5  2  0
  5  6  1  0
  5  7  1  0
  7  8  1  0
  8  9  1  0
  9 10  2  0
 10 11  1  0
 10 12  1  0
 12 13  1  0
 13 14  1  0
 14 15  2  0
 15 16  1  0
 15 17  1  0
  2 18  1  0
 18 19  2  0
 18 20  1  1
 18 21  1  0
 21 22  1  0
 22 23  1  6
 22 24  1  0
 22 25  2  0
M  END
