7AA0_R6B_BBB_201
     RDKit          3D

 26 28  0  0  0  0  0  0  0  0999 V2000
   -5.8570   -8.8870   32.9710 C   0  0  0  0  0  0  0  0  0  0  0  0
   -6.3790   -9.6450   30.6450 C   0  0  0  0  0  0  0  0  0  0  0  0
   -5.7170   -9.6950   34.1110 C   0  0  0  0  0  0  0  0  0  0  0  0
   -4.6520   -9.4580   34.9970 C   0  0  0  0  0  0  0  0  0  0  0  0
   -5.6730  -12.5950   35.6320 C   0  0  0  0  0  0  0  0  0  0  0  0
   -6.9790   -9.0810   31.9460 C   0  0  0  0  0  0  0  0  0  0  0  0
   -8.0330  -10.0690   32.4690 C   0  0  0  0  0  0  0  0  0  0  0  0
   -7.4000  -11.2280   33.1950 C   0  0  0  0  0  0  0  0  0  0  0  0
   -6.6580  -11.4470   35.6280 C   0  0  0  0  0  0  0  0  0  0  0  0
   -8.0570  -11.8890   35.9980 C   0  0  0  0  0  0  0  0  0  0  0  0
   -7.6740   -7.7410   31.6470 C   0  0  0  0  0  0  0  0  0  0  0  0
   -6.5970  -10.7390   34.3170 N   0  0  0  0  0  0  0  0  0  0  0  0
   -4.9310   -7.8560   32.7610 C   0  0  0  0  0  0  0  0  0  0  0  0
   -3.7520   -8.4380   34.7570 C   0  0  0  0  0  0  0  0  0  0  0  0
   -3.8920   -7.5920   33.6580 C   0  0  0  0  0  0  0  0  0  0  0  0
   -2.9080   -6.5080   33.3680 C   0  0  0  0  0  0  0  0  0  0  0  0
   -2.7790   -6.0300   32.0700 C   0  0  0  0  0  0  0  0  0  0  0  0
   -1.8390   -5.0730   31.7380 C   0  0  0  0  0  0  0  0  0  0  0  0
   -0.9640   -4.5490   32.6810 C   0  0  0  0  0  0  0  0  0  0  0  0
   -1.0660   -5.0470   33.9810 C   0  0  0  0  0  0  0  0  0  0  0  0
   -2.0120   -6.0090   34.3140 C   0  0  0  0  0  0  0  0  0  0  0  0
    0.0070   -3.5280   32.2640 C   0  0  0  0  0  0  0  0  0  0  0  0
    1.0620   -3.1210   32.9070 C   0  0  0  0  0  0  0  0  0  0  0  0
    2.0590   -2.1360   32.3590 C   0  0  0  0  0  0  0  0  0  0  0  0
    2.2760   -2.0730   31.0960 O   0  0  0  0  0  0  0  0  0  0  0  0
    2.5850   -1.4110   33.1630 O   0  0  0  0  0  0  0  0  0  0  0  0
  1  3  1  0
  3  4  2  0
  1  6  1  0
  2  6  1  0
  6  7  1  0
  7  8  1  0
  5  9  1  0
  9 10  1  0
  6 11  1  0
  8 12  1  0
  9 12  1  0
  3 12  1  0
  1 13  2  0
  4 14  1  0
 13 15  1  0
 14 15  2  0
 15 16  1  0
 16 17  2  0
 17 18  1  0
 18 19  2  0
 19 20  1  0
 16 21  1  0
 20 21  2  0
 19 22  1  0
 22 23  2  0
 23 24  1  0
 24 25  1  0
 24 26  2  0
M  END
$$$$
