1N2V_BDI_A_900
     RDKit          3D

 15 16  0  0  0  0  0  0  0  0999 V2000
   17.5953   17.4621   20.8228 N   0  0  0  0  0  0  0  0  0  0  0  0
   16.6356   17.1867   19.8980 C   0  0  0  0  0  0  0  0  0  0  0  0
   16.8825   17.1859   18.4188 C   0  0  0  0  0  0  0  0  0  0  0  0
   15.9765   18.1679   17.7377 C   0  0  0  0  0  0  0  0  0  0  0  0
   16.1835   18.2878   16.2681 C   0  0  0  0  0  0  0  0  0  0  0  0
   15.2770   19.2678   15.5926 C   0  0  0  0  0  0  0  0  0  0  0  0
   15.4838   16.9295   20.5449 N   0  0  0  0  0  0  0  0  0  0  0  0
   15.7351   17.0472   21.8780 C   0  0  0  0  0  0  0  0  0  0  0  0
   14.9638   16.9044   23.0159 C   0  0  0  0  0  0  0  0  0  0  0  0
   15.5187   17.0919   24.2280 N   0  0  0  0  0  0  0  0  0  0  0  0
   16.8013   17.4143   24.3700 N   0  0  0  0  0  0  0  0  0  0  0  0
   17.6253   17.5732   23.3048 C   0  0  0  0  0  0  0  0  0  0  0  0
   18.8401   17.8798   23.4687 O   0  0  0  0  0  0  0  0  0  0  0  0
   17.0650   17.3828   22.0569 C   0  0  0  0  0  0  0  0  0  0  0  0
   13.7406   16.5981   22.9108 O   0  0  0  0  0  0  0  0  0  0  0  0
  1  2  2  0
  2  3  1  0
  3  4  1  0
  4  5  1  0
  5  6  1  0
  2  7  1  0
  7  8  1  0
  8  9  1  0
  9 10  1  0
 10 11  1  0
 11 12  1  0
 12 13  2  0
  1 14  1  0
  8 14  2  0
 12 14  1  0
  9 15  2  0
M  END
$$$$
