1N2V_BDI_A_900
     RDKit          3D

 15 16  0  0  0  0  0  0  0  0999 V2000
   17.5015   17.4685   20.7541 N   0  0  0  0  0  0  0  0  0  0  0  0
   16.5007   17.1339   19.8948 C   0  0  0  0  0  0  0  0  0  0  0  0
   16.6757   17.0477   18.4080 C   0  0  0  0  0  0  0  0  0  0  0  0
   16.4626   18.3921   17.7784 C   0  0  0  0  0  0  0  0  0  0  0  0
   16.6117   18.4147   16.2971 C   0  0  0  0  0  0  0  0  0  0  0  0
   16.2735   19.7256   15.6603 C   0  0  0  0  0  0  0  0  0  0  0  0
   15.3838   16.9084   20.6111 N   0  0  0  0  0  0  0  0  0  0  0  0
   15.6982   17.1054   21.9211 C   0  0  0  0  0  0  0  0  0  0  0  0
   14.9840   17.0251   23.1018 C   0  0  0  0  0  0  0  0  0  0  0  0
   15.5953   17.2865   24.2724 N   0  0  0  0  0  0  0  0  0  0  0  0
   16.8804   17.6241   24.3326 N   0  0  0  0  0  0  0  0  0  0  0  0
   17.6505   17.7250   23.2211 C   0  0  0  0  0  0  0  0  0  0  0  0
   18.8691   18.0477   23.3074 O   0  0  0  0  0  0  0  0  0  0  0  0
   17.0322   17.4586   22.0152 C   0  0  0  0  0  0  0  0  0  0  0  0
   13.7598   16.7061   23.0745 O   0  0  0  0  0  0  0  0  0  0  0  0
  1  2  2  0
  2  3  1  0
  3  4  1  0
  4  5  1  0
  5  6  1  0
  2  7  1  0
  7  8  1  0
  8  9  1  0
  9 10  1  0
 10 11  1  0
 11 12  1  0
 12 13  2  0
  1 14  1  0
  8 14  2  0
 12 14  1  0
  9 15  2  0
M  END
$$$$
