1N2V_BDI_A_900
     RDKit          3D

 15 16  0  0  0  0  0  0  0  0999 V2000
   17.5483   17.3257   20.7635 N   0  0  0  0  0  0  0  0  0  0  0  0
   16.5737   17.0076   19.8685 C   0  0  0  0  0  0  0  0  0  0  0  0
   16.7821   16.9905   18.3836 C   0  0  0  0  0  0  0  0  0  0  0  0
   16.5210   18.3489   17.8041 C   0  0  0  0  0  0  0  0  0  0  0  0
   16.6852   18.4357   16.3267 C   0  0  0  0  0  0  0  0  0  0  0  0
   16.4609   19.8010   15.7576 C   0  0  0  0  0  0  0  0  0  0  0  0
   15.4472   16.7269   20.5493 N   0  0  0  0  0  0  0  0  0  0  0  0
   15.7293   16.8730   21.8734 C   0  0  0  0  0  0  0  0  0  0  0  0
   14.9923   16.7255   23.0333 C   0  0  0  0  0  0  0  0  0  0  0  0
   15.5725   16.9485   24.2274 N   0  0  0  0  0  0  0  0  0  0  0  0
   16.8482   17.3108   24.3306 N   0  0  0  0  0  0  0  0  0  0  0  0
   17.6392   17.4769   23.2419 C   0  0  0  0  0  0  0  0  0  0  0  0
   18.8482   17.8217   23.3691 O   0  0  0  0  0  0  0  0  0  0  0  0
   17.0528   17.2504   22.0122 C   0  0  0  0  0  0  0  0  0  0  0  0
   13.7764   16.3818   22.9651 O   0  0  0  0  0  0  0  0  0  0  0  0
  1  2  2  0
  2  3  1  0
  3  4  1  0
  4  5  1  0
  5  6  1  0
  2  7  1  0
  7  8  1  0
  8  9  1  0
  9 10  1  0
 10 11  1  0
 11 12  1  0
 12 13  2  0
  1 14  1  0
  8 14  2  0
 12 14  1  0
  9 15  2  0
M  END
$$$$
