1N2V_BDI_A_900
     RDKit          3D

 15 16  0  0  0  0  0  0  0  0999 V2000
   17.6752   17.4534   20.6842 N   0  0  0  0  0  0  0  0  0  0  0  0
   16.6899   17.1429   19.7983 C   0  0  0  0  0  0  0  0  0  0  0  0
   16.8906   17.1007   18.3128 C   0  0  0  0  0  0  0  0  0  0  0  0
   16.3727   18.3580   17.6801 C   0  0  0  0  0  0  0  0  0  0  0  0
   16.5471   18.4272   16.2030 C   0  0  0  0  0  0  0  0  0  0  0  0
   16.0641   19.6992   15.5810 C   0  0  0  0  0  0  0  0  0  0  0  0
   15.5613   16.8949   20.4882 N   0  0  0  0  0  0  0  0  0  0  0  0
   15.8528   17.0537   21.8088 C   0  0  0  0  0  0  0  0  0  0  0  0
   15.1186   16.9377   22.9740 C   0  0  0  0  0  0  0  0  0  0  0  0
   15.7091   17.1654   24.1622 N   0  0  0  0  0  0  0  0  0  0  0  0
   16.9924   17.5028   24.2544 N   0  0  0  0  0  0  0  0  0  0  0  0
   17.7813   17.6374   23.1598 C   0  0  0  0  0  0  0  0  0  0  0  0
   18.9977   17.9590   23.2765 O   0  0  0  0  0  0  0  0  0  0  0  0
   17.1843   17.4058   21.9361 C   0  0  0  0  0  0  0  0  0  0  0  0
   13.8956   16.6182   22.9163 O   0  0  0  0  0  0  0  0  0  0  0  0
  1  2  2  0
  2  3  1  0
  3  4  1  0
  4  5  1  0
  5  6  1  0
  2  7  1  0
  7  8  1  0
  8  9  1  0
  9 10  1  0
 10 11  1  0
 11 12  1  0
 12 13  2  0
  1 14  1  0
  8 14  2  0
 12 14  1  0
  9 15  2  0
M  END
$$$$
