1N2V_BDI_A_900
     RDKit          3D

 15 16  0  0  0  0  0  0  0  0999 V2000
   17.6473   17.4099   20.7884 N   0  0  0  0  0  0  0  0  0  0  0  0
   16.6789   17.1180   19.8779 C   0  0  0  0  0  0  0  0  0  0  0  0
   16.9209   17.0508   18.3995 C   0  0  0  0  0  0  0  0  0  0  0  0
   16.2009   18.1658   17.7013 C   0  0  0  0  0  0  0  0  0  0  0  0
   16.3799   18.1911   16.2233 C   0  0  0  0  0  0  0  0  0  0  0  0
   15.5921   19.2520   15.5218 C   0  0  0  0  0  0  0  0  0  0  0  0
   15.5238   16.9134   20.5375 N   0  0  0  0  0  0  0  0  0  0  0  0
   15.7818   17.0802   21.8640 C   0  0  0  0  0  0  0  0  0  0  0  0
   15.0112   17.0016   23.0086 C   0  0  0  0  0  0  0  0  0  0  0  0
   15.5740   17.2264   24.2107 N   0  0  0  0  0  0  0  0  0  0  0  0
   16.8638   17.5258   24.3363 N   0  0  0  0  0  0  0  0  0  0  0  0
   17.6877   17.6223   23.2636 C   0  0  0  0  0  0  0  0  0  0  0  0
   18.9095   17.9083   23.4119 O   0  0  0  0  0  0  0  0  0  0  0  0
   17.1194   17.3933   22.0259 C   0  0  0  0  0  0  0  0  0  0  0  0
   13.7811   16.7185   22.9190 O   0  0  0  0  0  0  0  0  0  0  0  0
  1  2  2  0
  2  3  1  0
  3  4  1  0
  4  5  1  0
  5  6  1  0
  2  7  1  0
  7  8  1  0
  8  9  1  0
  9 10  1  0
 10 11  1  0
 11 12  1  0
 12 13  2  0
  1 14  1  0
  8 14  2  0
 12 14  1  0
  9 15  2  0
M  END
$$$$
