
     RDKit          3D

 34 38  0  0  0  0  0  0  0  0999 V2000
   -1.6589   29.4086   23.1107 O   0  0  0  0  0  0  0  0  0  0  0  0
   -0.8705   29.9072   22.0065 S   0  0  0  0  0  6  0  0  0  0  0  0
    0.1727   30.8925   22.1885 O   0  0  0  0  0  0  0  0  0  0  0  0
   -1.9614   30.4979   20.8833 N   0  0  0  0  0  0  0  0  0  0  0  0
   -2.6541   29.5750   19.9955 C   0  0  0  0  0  0  0  0  0  0  0  0
   -3.1162   30.2346   18.7272 C   0  0  0  0  0  0  0  0  0  0  0  0
   -4.5241   30.7525   18.5408 C   0  0  0  0  0  0  0  0  0  0  0  0
   -3.3737   31.7213   18.6188 C   0  0  0  0  0  0  0  0  0  0  0  0
   -0.1662   28.5117   21.1610 C   0  0  0  0  0  0  0  0  0  0  0  0
   -0.6302   27.2220   21.4403 C   0  0  0  0  0  0  0  0  0  0  0  0
   -0.0541   26.1312   20.7884 C   0  0  0  0  0  0  0  0  0  0  0  0
    0.8320   28.7272   20.2027 C   0  0  0  0  0  0  0  0  0  0  0  0
    1.4125   27.6436   19.5305 C   0  0  0  0  0  0  0  0  0  0  0  0
    0.9464   26.3461   19.8342 C   0  0  0  0  0  0  0  0  0  0  0  0
    1.5421   25.2782   19.2042 O   0  0  0  0  0  0  0  0  0  0  0  0
    2.2343   24.4513   20.1438 C   0  0  0  0  0  0  0  0  0  0  0  0
    2.3850   27.8080   18.5251 N   0  0  0  0  0  0  0  0  0  0  0  0
    2.5190   28.8439   17.6717 C   0  0  0  0  0  0  0  0  0  0  0  0
    1.5001   29.7450   17.5761 O   0  0  0  0  0  0  0  0  0  0  0  0
    1.8762   30.6052   16.5805 C   0  0  0  0  0  0  0  0  0  0  0  0
    3.1123   30.1893   16.1409 C   0  0  0  0  0  0  0  0  0  0  0  0
    3.5049   29.0664   16.8265 N   0  0  0  0  0  0  0  0  0  0  0  0
    0.9341   31.6585   16.2368 C   0  0  0  0  0  0  0  0  0  0  0  0
    0.9644   32.2679   14.9674 C   0  0  0  0  0  0  0  0  0  0  0  0
    0.0860   33.3106   14.6206 C   0  0  0  0  0  0  0  0  0  0  0  0
   -0.8487   33.7298   15.5794 C   0  0  0  0  0  0  0  0  0  0  0  0
   -0.8994   33.1319   16.8401 C   0  0  0  0  0  0  0  0  0  0  0  0
   -0.0098   32.1053   17.1666 C   0  0  0  0  0  0  0  0  0  0  0  0
    0.1547   33.9443   13.2976 C   0  0  0  0  0  0  0  0  0  0  0  0
   -0.0322   35.3200   13.1283 C   0  0  0  0  0  0  0  0  0  0  0  0
    0.0144   35.9700   11.9405 N   0  0  0  0  0  0  0  0  0  0  0  0
    0.2813   35.2136   10.8527 C   0  0  0  0  0  0  0  0  0  0  0  0
    0.4837   33.8402   10.8972 C   0  0  0  0  0  0  0  0  0  0  0  0
    0.4178   33.2008   12.1335 C   0  0  0  0  0  0  0  0  0  0  0  0
  1  2  2  0
  2  3  2  0
  2  4  1  0
  4  5  1  0
  5  6  1  0
  6  7  1  0
  6  8  1  0
  7  8  1  0
  2  9  1  0
  9 10  4  0
 10 11  4  0
  9 12  4  0
 12 13  4  0
 11 14  4  0
 13 14  4  0
 14 15  1  0
 15 16  1  0
 13 17  1  0
 17 18  1  0
 18 19  4  0
 19 20  4  0
 20 21  4  0
 18 22  4  0
 21 22  4  0
 20 23  1  0
 23 24  4  0
 24 25  4  0
 25 26  4  0
 26 27  4  0
 23 28  4  0
 27 28  4  0
 25 29  1  0
 29 30  4  0
 30 31  4  0
 31 32  4  0
 32 33  4  0
 29 34  4  0
 33 34  4  0
M  END
