1SG0_STL_B_502
     RDKit          3D

 17 18  0  0  0  0  0  0  0  0999 V2000
   27.3802   -7.3062    5.3721 C   0  0  0  0  0  0  0  0  0  0  0  0
   27.7777   -6.3109    4.5044 C   0  0  0  0  0  0  0  0  0  0  0  0
   29.0014   -6.4323    3.8805 C   0  0  0  0  0  0  0  0  0  0  0  0
   29.8079   -7.5219    4.1183 C   0  0  0  0  0  0  0  0  0  0  0  0
   29.4334   -8.5490    4.9933 C   0  0  0  0  0  0  0  0  0  0  0  0
   28.2057   -8.4003    5.6019 C   0  0  0  0  0  0  0  0  0  0  0  0
   30.3094   -9.6919    5.2253 C   0  0  0  0  0  0  0  0  0  0  0  0
   31.3083   -9.7179    6.0529 C   0  0  0  0  0  0  0  0  0  0  0  0
   32.1946  -10.8557    6.2621 C   0  0  0  0  0  0  0  0  0  0  0  0
   33.5639  -10.7901    6.1068 C   0  0  0  0  0  0  0  0  0  0  0  0
   34.3955  -11.8827    6.3096 C   0  0  0  0  0  0  0  0  0  0  0  0
   33.8544  -13.0939    6.6820 C   0  0  0  0  0  0  0  0  0  0  0  0
   32.4905  -13.1905    6.8449 C   0  0  0  0  0  0  0  0  0  0  0  0
   31.6846  -12.0925    6.6381 C   0  0  0  0  0  0  0  0  0  0  0  0
   34.6294  -14.2210    6.8995 O   0  0  0  0  0  0  0  0  0  0  0  0
   29.4619   -5.4499    2.9849 O   0  0  0  0  0  0  0  0  0  0  0  0
   26.1394   -7.2166    6.0262 O   0  0  0  0  0  0  0  0  0  0  0  0
  1  2  2  0
  2  3  1  0
  3  4  2  0
  4  5  1  0
  1  6  1  0
  5  6  2  0
  5  7  1  0
  7  8  2  0
  8  9  1  0
  9 10  2  0
 10 11  1  0
 11 12  2  0
 12 13  1  0
  9 14  1  0
 13 14  2  0
 12 15  1  0
  3 16  1  0
  1 17  1  0
M  END
$$$$
