1SG0_STL_B_502
     RDKit          3D

 17 18  0  0  0  0  0  0  0  0999 V2000
   34.1377   14.9134    6.0504 C   0  0  0  0  0  0  0  0  0  0  0  0
   34.8223   14.7013    4.8723 C   0  0  0  0  0  0  0  0  0  0  0  0
   34.1075   14.6647    3.6937 C   0  0  0  0  0  0  0  0  0  0  0  0
   32.7419   14.8361    3.6928 C   0  0  0  0  0  0  0  0  0  0  0  0
   32.0177   15.0532    4.8714 C   0  0  0  0  0  0  0  0  0  0  0  0
   32.7586   15.0847    6.0332 C   0  0  0  0  0  0  0  0  0  0  0  0
   30.5704   15.2315    4.8391 C   0  0  0  0  0  0  0  0  0  0  0  0
   29.8813   15.9411    5.6787 C   0  0  0  0  0  0  0  0  0  0  0  0
   28.4303   16.0766    5.6690 C   0  0  0  0  0  0  0  0  0  0  0  0
   27.5936   15.2338    4.9669 C   0  0  0  0  0  0  0  0  0  0  0  0
   26.2128   15.3755    4.9673 C   0  0  0  0  0  0  0  0  0  0  0  0
   25.6302   16.3927    5.6915 C   0  0  0  0  0  0  0  0  0  0  0  0
   26.4395   17.2503    6.4026 C   0  0  0  0  0  0  0  0  0  0  0  0
   27.8077   17.0903    6.3874 C   0  0  0  0  0  0  0  0  0  0  0  0
   24.2596   16.5876    5.7328 O   0  0  0  0  0  0  0  0  0  0  0  0
   34.7495   14.4520    2.4600 O   0  0  0  0  0  0  0  0  0  0  0  0
   34.8327   14.9569    7.2713 O   0  0  0  0  0  0  0  0  0  0  0  0
  1  2  2  0
  2  3  1  0
  3  4  2  0
  4  5  1  0
  1  6  1  0
  5  6  2  0
  5  7  1  0
  7  8  2  0
  8  9  1  0
  9 10  2  0
 10 11  1  0
 11 12  2  0
 12 13  1  0
  9 14  1  0
 13 14  2  0
 12 15  1  0
  3 16  1  0
  1 17  1  0
M  END
$$$$
