1SG0_STL_B_502
     RDKit          3D

 17 18  0  0  0  0  0  0  0  0999 V2000
   49.2804   28.3327   17.2534 C   0  0  0  0  0  0  0  0  0  0  0  0
   50.3839   27.7596   16.6570 C   0  0  0  0  0  0  0  0  0  0  0  0
   50.9932   28.4313   15.6183 C   0  0  0  0  0  0  0  0  0  0  0  0
   50.5113   29.6460   15.1863 C   0  0  0  0  0  0  0  0  0  0  0  0
   49.3935   30.2543   15.7705 C   0  0  0  0  0  0  0  0  0  0  0  0
   48.8057   29.5599   16.8059 C   0  0  0  0  0  0  0  0  0  0  0  0
   48.9058   31.5426   15.2912 C   0  0  0  0  0  0  0  0  0  0  0  0
   47.7826   32.0955   15.6319 C   0  0  0  0  0  0  0  0  0  0  0  0
   47.3005   33.3826   15.1475 C   0  0  0  0  0  0  0  0  0  0  0  0
   46.1100   33.5411   14.4687 C   0  0  0  0  0  0  0  0  0  0  0  0
   45.6639   34.7740   14.0132 C   0  0  0  0  0  0  0  0  0  0  0  0
   46.4244   35.9012   14.2363 C   0  0  0  0  0  0  0  0  0  0  0  0
   47.6179   35.7748   14.9113 C   0  0  0  0  0  0  0  0  0  0  0  0
   48.0405   34.5407   15.3542 C   0  0  0  0  0  0  0  0  0  0  0  0
   46.0353   37.1594   13.8077 O   0  0  0  0  0  0  0  0  0  0  0  0
   52.1222   27.8979   14.9701 O   0  0  0  0  0  0  0  0  0  0  0  0
   48.6332   27.6773   18.3150 O   0  0  0  0  0  0  0  0  0  0  0  0
  1  2  2  0
  2  3  1  0
  3  4  2  0
  4  5  1  0
  1  6  1  0
  5  6  2  0
  5  7  1  0
  7  8  2  0
  8  9  1  0
  9 10  2  0
 10 11  1  0
 11 12  2  0
 12 13  1  0
  9 14  1  0
 13 14  2  0
 12 15  1  0
  3 16  1  0
  1 17  1  0
M  END
$$$$
