7SSM_B7L_A_4000
     RDKit          3D

 25 28  0  0  0  0  0  0  0  0999 V2000
  -17.3625  -22.6567   -2.6272 C   0  0  0  0  0  0  0  0  0  0  0  0
  -15.9234  -22.8349    7.0781 C   0  0  0  0  0  0  0  0  0  0  0  0
  -17.3372  -25.0860    0.2856 C   0  0  0  0  0  0  0  0  0  0  0  0
  -14.3458  -22.5887    5.4978 C   0  0  0  0  0  0  0  0  0  0  0  0
  -12.7118  -24.0585    6.4049 C   0  0  0  0  0  0  0  0  0  0  0  0
  -11.9049  -23.7425    5.3664 C   0  0  0  0  0  0  0  0  0  0  0  0
  -12.3691  -22.8387    4.4096 C   0  0  0  0  0  0  0  0  0  0  0  0
  -17.3325  -23.7913   -0.4869 C   0  0  0  0  0  0  0  0  0  0  0  0
  -17.3866  -23.8319   -1.8837 C   0  0  0  0  0  0  0  0  0  0  0  0
  -15.6525  -22.1477    5.8788 C   0  0  0  0  0  0  0  0  0  0  0  0
  -16.5167  -21.1709    5.1483 C   0  0  0  0  0  0  0  0  0  0  0  0
  -16.2726  -20.9721    3.8519 N   0  0  0  0  0  0  0  0  0  0  0  0
  -17.4163  -20.5692    5.7423 O   0  0  0  0  0  0  0  0  0  0  0  0
  -17.2644  -20.3706    2.9858 C   0  0  0  0  0  0  0  0  0  0  0  0
  -17.2340  -20.8879    1.5965 C   0  0  0  0  0  0  0  0  0  0  0  0
  -17.2521  -22.2686    1.4730 O   0  0  0  0  0  0  0  0  0  0  0  0
  -17.2537  -22.5338    0.1261 C   0  0  0  0  0  0  0  0  0  0  0  0
  -17.2246  -21.3458   -0.6064 C   0  0  0  0  0  0  0  0  0  0  0  0
  -17.2132  -20.2902    0.3694 C   0  0  0  0  0  0  0  0  0  0  0  0
  -17.2811  -21.4230   -2.0016 C   0  0  0  0  0  0  0  0  0  0  0  0
  -17.1725  -25.0375    1.5717 O   0  0  0  0  0  0  0  0  0  0  0  0
  -17.5209  -26.1488   -0.2564 O   0  0  0  0  0  0  0  0  0  0  0  0
  -14.9303  -23.6282    7.4594 N   0  0  0  0  0  0  0  0  0  0  0  0
  -13.9486  -23.4691    6.4687 N   0  0  0  0  0  0  0  0  0  0  0  0
  -13.5583  -22.2565    4.4425 N   0  0  0  0  0  0  0  0  0  0  0  0
  5  6  2  0
  6  7  1  0
  3  8  1  0
  1  9  2  0
  8  9  1  0
  2 10  1  0
  4 10  2  0
 10 11  1  0
 11 12  1  0
 11 13  2  0
 12 14  1  0
 14 15  1  0
 15 16  1  0
 16 17  1  0
  8 17  2  0
 17 18  1  0
 15 19  2  0
 18 19  1  0
 18 20  2  0
  1 20  1  0
  3 21  1  0
  3 22  2  0
  2 23  2  0
 23 24  1  0
  4 24  1  0
  5 24  1  0
  4 25  1  0
  7 25  2  0
M  END
