8B8H_OJQ_A_401
     RDKit          3D

 22 23  0  0  0  0  0  0  0  0999 V2000
   38.8239   11.0283    7.5082 C   0  0  0  0  0  0  0  0  0  0  0  0
   37.9028   10.3356    6.7424 C   0  0  0  0  0  0  0  0  0  0  0  0
   36.6911    9.9767    7.3199 C   0  0  0  0  0  0  0  0  0  0  0  0
   36.4431   10.3156    8.6445 C   0  0  0  0  0  0  0  0  0  0  0  0
   38.5330   11.3446    8.8218 C   0  0  0  0  0  0  0  0  0  0  0  0
   39.8013    9.4632    5.3138 N   0  0  0  0  0  0  0  0  0  0  0  0
   40.5193    9.8819    4.1453 C   0  0  0  0  0  0  0  0  0  0  0  0
   41.5627   10.9737    4.0717 C   0  0  0  0  0  0  0  0  0  0  0  0
   42.0921   11.6816    5.2667 O   0  0  0  0  0  0  0  0  0  0  0  0
   40.3576    9.5754    2.8174 C   0  0  0  0  0  0  0  0  0  0  0  0
   41.2645   10.3204    2.0909 O   0  0  0  0  0  0  0  0  0  0  0  0
   42.0001   11.1666    2.8145 N   0  0  0  0  0  0  0  0  0  0  0  0
   39.5352   12.0949    9.6590 C   0  0  0  0  0  0  0  0  0  0  0  0
   38.2495   10.0058    5.3078 C   0  0  0  0  0  0  0  0  0  0  0  0
   35.6269    9.2163    6.5578 C   0  0  0  0  0  0  0  0  0  0  0  0
   37.3529   10.9829    9.3637 N   0  0  0  0  0  0  0  0  0  0  0  0
   39.9916   11.3863    6.9818 O   0  0  0  0  0  0  0  0  0  0  0  0
   33.9320    7.4688    4.9554 O   0  0  0  0  0  0  0  0  0  0  0  0
   35.8743    7.9094    3.4856 O   0  0  0  0  0  0  0  0  0  0  0  0
   35.7696    5.8210    4.8183 O   0  0  0  0  0  0  0  0  0  0  0  0
   36.1757    8.0220    6.0060 O   0  0  0  0  0  0  0  0  0  0  0  0
   35.4205    7.2880    4.7827 P   0  0  2  0  0  0  0  0  0  0  0  0
  1  2  2  0
  2  3  1  0
  3  4  2  0
  1  5  1  0
  6  7  1  0
  7  8  1  0
  8  9  1  0
  7 10  2  0
 10 11  1  0
  8 12  2  0
 11 12  1  0
  5 13  1  0
  6 14  1  0
  2 14  1  0
  3 15  1  0
  5 16  2  0
  4 16  1  0
  1 17  1  0
 15 21  1  0
 20 22  2  0
 21 22  1  0
 22 18  1  1
 19 22  1  0
M  CHG  1   6   1
M  END
