1GM8_SOX_B_1559
     RDKit          3D

 24 26  0  0  0  0  0  0  0  0999 V2000
   11.7930   -2.1560    2.0530 O   0  0  0  0  0  0  0  0  0  0  0  0
   12.8370   -2.6800    2.3630 C   0  0  0  0  0  0  0  0  0  0  0  0
   13.1500   -3.9790    2.7790 N   0  0  0  0  0  0  0  0  0  0  0  0
   12.3530   -5.0080    3.3790 C   0  0  1  0  0  0  0  0  0  0  0  0
   12.1060   -6.2040    2.4480 C   0  0  0  0  0  0  0  0  0  0  0  0
   12.4880   -6.2830    1.3210 O   0  0  0  0  0  0  0  0  0  0  0  0
   11.4180   -7.1670    3.1260 O   0  0  0  0  0  0  0  0  0  0  0  0
   13.1470   -5.3640    4.6560 C   0  0  0  0  0  0  0  0  0  0  0  0
   14.0770   -6.6000    4.5160 C   0  0  0  0  0  0  0  0  0  0  0  0
   12.2410   -5.6410    5.8740 C   0  0  0  0  0  0  0  0  0  0  0  0
   14.1410   -3.8690    5.0030 S   0  0  1  0  0  0  0  0  0  0  0  0
   14.4550   -3.5580    3.2470 C   0  0  2  0  0  0  0  0  0  0  0  0
   14.2560   -2.1940    2.5600 C   0  0  2  0  0  0  0  0  0  0  0  0
   14.3180   -0.9860    3.3330 N   0  0  0  0  0  0  0  0  0  0  0  0
   14.9890    0.1200    2.9310 C   0  0  0  0  0  0  0  0  0  0  0  0
   15.6650    0.3130    1.9230 O   0  0  0  0  0  0  0  0  0  0  0  0
   14.9000    1.2820    3.9200 C   0  0  0  0  0  0  0  0  0  0  0  0
   16.3010    1.7990    4.2240 C   0  0  0  0  0  0  0  0  0  0  0  0
   16.8270    2.9210    3.6010 C   0  0  0  0  0  0  0  0  0  0  0  0
   18.0650    3.4310    4.0050 C   0  0  0  0  0  0  0  0  0  0  0  0
   18.8150    2.7570    4.9800 C   0  0  0  0  0  0  0  0  0  0  0  0
   18.3160    1.6020    5.5910 C   0  0  0  0  0  0  0  0  0  0  0  0
   17.0490    1.1580    5.2140 C   0  0  0  0  0  0  0  0  0  0  0  0
   13.2820   -2.7090    5.3380 O   0  0  0  0  0  0  0  0  0  0  0  0
  1  2  2  0
  2  3  1  0
  3  4  1  0
  4  5  1  6
  5  6  2  0
  5  7  1  0
  4  8  1  0
  8  9  1  0
  8 10  1  0
  8 11  1  0
 12  3  1  6
 11 12  1  0
  2 13  1  0
 12 13  1  0
 13 14  1  1
 14 15  1  0
 15 16  2  0
 15 17  1  0
 17 18  1  0
 18 19  2  0
 19 20  1  0
 20 21  2  0
 21 22  1  0
 18 23  1  0
 22 23  2  0
 11 24  1  6
M  END
$$$$
