1HWW_SWA_A_1103
     RDKit          3D

 12 13  0  0  0  0  0  0  0  0999 V2000
   33.4578   64.2102    1.7893 C   0  0  1  0  0  0  0  0  0  0  0  0
   34.8322   64.0054    1.4200 O   0  0  0  0  0  0  0  0  0  0  0  0
   33.2121   63.7376    3.2621 C   0  0  1  0  0  0  0  0  0  0  0  0
   31.7916   63.9688    3.5870 N   0  0  0  0  0  0  0  0  0  0  0  0
   31.4082   65.4098    3.5855 C   0  0  0  0  0  0  0  0  0  0  0  0
   31.6061   65.9681    2.1500 C   0  0  0  0  0  0  0  0  0  0  0  0
   33.0697   65.7234    1.6789 C   0  0  0  0  0  0  0  0  0  0  0  0
   31.4412   63.1601    4.7476 C   0  0  0  0  0  0  0  0  0  0  0  0
   32.4259   61.9626    4.7371 C   0  0  1  0  0  0  0  0  0  0  0  0
   31.7216   60.7417    4.5297 O   0  0  0  0  0  0  0  0  0  0  0  0
   33.4436   62.2327    3.5680 C   0  0  1  0  0  0  0  0  0  0  0  0
   33.1402   61.4169    2.4164 O   0  0  0  0  0  0  0  0  0  0  0  0
  1  2  1  1
  1  3  1  0
  3  4  1  6
  4  5  1  0
  5  6  1  0
  1  7  1  0
  6  7  1  0
  4  8  1  0
  8  9  1  0
  9 10  1  6
  3 11  1  0
  9 11  1  0
 11 12  1  6
M  END
