7TE8_P0T_C_201
     RDKit          3D

 53 54  0  0  0  0  0  0  0  0999 V2000
  -50.2873  -53.9484   33.6575 C   0  0  0  0  0  0  0  0  0  0  0  0
  -50.3977  -55.9732   36.1387 C   0  0  0  0  0  0  0  0  0  0  0  0
  -49.5823  -54.4269   37.8429 C   0  0  0  0  0  0  0  0  0  0  0  0
  -45.6282  -51.9491   36.6141 C   0  0  1  0  0  0  0  0  0  0  0  0
  -50.9615  -53.2002   32.5347 C   0  0  2  0  0  0  0  0  0  0  0  0
  -49.3294  -53.2383   34.6085 C   0  0  1  0  0  0  0  0  0  0  0  0
  -48.5728  -54.2504   35.5104 C   0  0  1  0  0  0  0  0  0  0  0  0
  -48.3294  -52.3578   33.8417 C   0  0  1  0  0  0  0  0  0  0  0  0
  -47.4729  -51.5595   34.8266 C   0  0  2  0  0  0  0  0  0  0  0  0
  -47.3859  -53.6288   36.2286 C   0  0  0  0  0  0  0  0  0  0  0  0
  -49.5252  -54.9094   36.5102 C   0  0  0  0  0  0  0  0  0  0  0  0
  -46.8387  -52.4460   35.8752 C   0  0  0  0  0  0  0  0  0  0  0  0
  -51.2474  -56.1009   38.4174 C   0  0  0  0  0  0  0  0  0  0  0  0
  -51.2265  -56.5599   37.0975 C   0  0  0  0  0  0  0  0  0  0  0  0
  -50.4319  -55.0259   38.7788 C   0  0  0  0  0  0  0  0  0  0  0  0
  -52.1350  -56.7561   39.4447 C   0  0  2  0  0  0  0  0  0  0  0  0
  -50.5462  -55.2551   33.8227 C   0  0  0  0  0  0  0  0  0  0  0  0
  -52.8141  -58.0241   38.8954 C   0  0  1  0  0  0  0  0  0  0  0  0
  -54.3058  -58.1356   39.2785 C   0  0  2  0  0  0  0  0  0  0  0  0
  -54.6002  -59.2642   40.2798 C   0  0  1  0  0  0  0  0  0  0  0  0
  -53.4331  -59.5504   41.2194 C   0  0  2  0  0  0  0  0  0  0  0  0
  -50.4944  -56.4750   34.8378 O   0  0  0  0  0  0  0  0  0  0  0  0
  -48.7903  -53.3489   38.2408 O   0  0  0  0  0  0  0  0  0  0  0  0
  -45.4891  -52.5275   37.5491 H   0  0  0  0  0  0  0  0  0  0  0  0
  -44.7297  -52.0658   35.9753 H   0  0  0  0  0  0  0  0  0  0  0  0
  -45.7328  -50.8771   36.8804 H   0  0  0  0  0  0  0  0  0  0  0  0
  -51.5318  -52.3435   32.9549 H   0  0  0  0  0  0  0  0  0  0  0  0
  -51.6586  -53.8579   31.9722 H   0  0  0  0  0  0  0  0  0  0  0  0
  -50.2105  -52.8145   31.8140 H   0  0  0  0  0  0  0  0  0  0  0  0
  -49.9172  -52.5482   35.2595 H   0  0  0  0  0  0  0  0  0  0  0  0
  -48.0971  -55.0049   34.8602 H   0  0  0  0  0  0  0  0  0  0  0  0
  -47.6623  -52.9844   33.2116 H   0  0  0  0  0  0  0  0  0  0  0  0
  -48.8736  -51.6523   33.1781 H   0  0  0  0  0  0  0  0  0  0  0  0
  -48.1037  -50.7996   35.3366 H   0  0  0  0  0  0  0  0  0  0  0  0
  -46.6838  -51.0223   34.2578 H   0  0  0  0  0  0  0  0  0  0  0  0
  -46.9025  -54.2209   37.0004 H   0  0  0  0  0  0  0  0  0  0  0  0
  -51.8642  -57.3836   36.8052 H   0  0  0  0  0  0  0  0  0  0  0  0
  -50.4516  -54.6525   39.7960 H   0  0  0  0  0  0  0  0  0  0  0  0
  -52.8930  -56.0368   39.8211 H   0  0  0  0  0  0  0  0  0  0  0  0
  -51.5129  -57.0389   40.3222 H   0  0  0  0  0  0  0  0  0  0  0  0
  -51.2317  -55.7769   33.1623 H   0  0  0  0  0  0  0  0  0  0  0  0
  -50.0753  -55.8242   34.6194 H   0  0  0  0  0  0  0  0  0  0  0  0
  -52.7205  -58.0263   37.7882 H   0  0  0  0  0  0  0  0  0  0  0  0
  -52.2566  -58.9162   39.2530 H   0  0  0  0  0  0  0  0  0  0  0  0
  -54.8794  -58.3586   38.3533 H   0  0  0  0  0  0  0  0  0  0  0  0
  -54.7054  -57.1738   39.6679 H   0  0  0  0  0  0  0  0  0  0  0  0
  -55.4734  -58.9636   40.8958 H   0  0  0  0  0  0  0  0  0  0  0  0
  -54.8762  -60.1940   39.7360 H   0  0  0  0  0  0  0  0  0  0  0  0
  -52.6749  -60.1893   40.7175 H   0  0  0  0  0  0  0  0  0  0  0  0
  -53.8046  -60.0962   42.1104 H   0  0  0  0  0  0  0  0  0  0  0  0
  -52.9617  -58.5994   41.5519 H   0  0  0  0  0  0  0  0  0  0  0  0
  -49.7143  -56.6870   34.2366 H   0  0  0  0  0  0  0  0  0  0  0  0
  -49.0411  -52.3922   38.0199 H   0  0  0  0  0  0  0  0  0  0  0  0
  1  5  1  0
  6  1  1  0
  6  7  1  0
  6  8  1  0
  8  9  1  0
  7 10  1  0
  2 11  2  0
  7 11  1  0
  3 11  1  0
  4 12  1  0
  9 12  1  0
 10 12  2  0
  2 14  1  0
 13 14  2  0
 13 15  1  0
  3 15  2  0
 13 16  1  0
  1 17  2  0
 16 18  1  0
 18 19  1  0
 19 20  1  0
 20 21  1  0
  2 22  1  0
  3 23  1  0
  4 24  1  1
  4 25  1  0
  4 26  1  0
  5 27  1  1
  5 28  1  0
  5 29  1  0
  6 30  1  1
  7 31  1  6
  8 32  1  6
  8 33  1  0
  9 34  1  1
  9 35  1  0
 10 36  1  0
 14 37  1  0
 15 38  1  0
 16 39  1  1
 16 40  1  0
 17 41  1  0
 17 42  1  0
 18 43  1  6
 18 44  1  0
 19 45  1  6
 19 46  1  0
 20 47  1  1
 20 48  1  0
 21 49  1  6
 21 50  1  0
 21 51  1  0
 22 52  1  0
 23 53  1  0
M  END
