7JXX_VP7_A_401
     RDKit          3D

 25 28  0  0  0  0  0  0  0  0999 V2000
  180.8330   18.5180   51.6961 N   0  0  0  0  0  0  0  0  0  0  0  0
  182.2786   18.8536   49.8232 N   0  0  0  0  0  0  0  0  0  0  0  0
  181.0441   18.7053   50.3789 C   0  0  0  0  0  0  0  0  0  0  0  0
  183.3643   18.8160   50.6237 C   0  0  0  0  0  0  0  0  0  0  0  0
  184.6759   18.9680   49.9724 C   0  0  0  0  0  0  0  0  0  0  0  0
  184.8099   18.9840   48.5247 C   0  0  0  0  0  0  0  0  0  0  0  0
  183.9371   18.8385   47.4389 C   0  0  0  0  0  0  0  0  0  0  0  0
  183.6266   18.8139   44.9824 C   0  0  0  0  0  0  0  0  0  0  0  0
  181.3410   20.0118   42.6017 C   0  0  0  0  0  0  0  0  0  0  0  0
  185.8377   19.0326   45.9282 C   0  0  0  0  0  0  0  0  0  0  0  0
  186.1901   19.1073   48.2596 C   0  0  0  0  0  0  0  0  0  0  0  0
  185.3968   19.5922   52.9227 C   0  0  0  0  0  0  0  0  0  0  0  0
  184.3362   18.5030   52.9752 C   0  0  0  0  0  0  0  0  0  0  0  0
  182.9238   18.7907   44.0215 C   0  0  0  0  0  0  0  0  0  0  0  0
  182.0675   18.6979   42.8348 C   0  0  1  0  0  0  0  0  0  0  0  0
  181.0832   17.5505   42.9688 C   0  0  0  0  0  0  0  0  0  0  0  0
  186.7144   19.1646   46.9741 C   0  0  0  0  0  0  0  0  0  0  0  0
  185.9470   19.1367   50.4924 C   0  0  0  0  0  0  0  0  0  0  0  0
  186.4414   19.2020   51.9012 C   0  0  0  0  0  0  0  0  0  0  0  0
  183.1852   18.6101   52.0029 C   0  0  0  0  0  0  0  0  0  0  0  0
  181.9027   18.4675   52.4842 C   0  0  0  0  0  0  0  0  0  0  0  0
  184.4626   18.8960   46.1415 C   0  0  0  0  0  0  0  0  0  0  0  0
  179.9693   18.7233   49.5804 N   0  0  0  0  0  0  0  0  0  0  0  0
  186.8390   19.2013   49.4600 N   0  0  0  0  0  0  0  0  0  0  0  0
  182.9006   18.4402   41.6893 O   0  0  0  0  0  0  0  0  0  0  0  0
  2  3  1  0
  1  3  2  0
  2  4  2  0
  4  5  1  0
  5  6  1  0
  6  7  2  0
  6 11  1  0
 12 13  1  0
  8 14  3  0
 15  9  1  6
 14 15  1  0
 15 16  1  0
 10 17  1  0
 11 17  2  0
  5 18  2  0
 18 19  1  0
 12 19  1  0
  4 20  1  0
 13 20  1  0
  1 21  1  0
 20 21  2  0
  8 22  1  0
 10 22  2  0
  7 22  1  0
  3 23  1  0
 11 24  1  0
 18 24  1  0
 15 25  1  0
M  END
