8DHG_T78_A_403
     RDKit          3D

 54 56  0  0  0  0  0  0  0  0999 V2000
   13.2073   -8.8715    4.6077 C   0  0  0  0  0  0  0  0  0  0  0  0
   12.2258   -8.0441    3.7869 C   0  0  0  0  0  0  0  0  0  0  0  0
   12.1912   -5.5632    4.2416 C   0  0  0  0  0  0  0  0  0  0  0  0
   13.7862   -6.1909    3.0042 C   0  0  0  0  0  0  0  0  0  0  0  0
   12.6774   -3.1009    4.2997 C   0  0  0  0  0  0  0  0  0  0  0  0
   12.5337   -1.1639    7.4015 O   0  0  0  0  0  0  0  0  0  0  0  0
   11.7276   -0.1598    8.0176 C   0  0  1  0  0  0  0  0  0  0  0  0
   12.5756    0.6675    8.9911 C   0  0  0  0  0  0  0  0  0  0  0  0
   11.1190    0.7234    6.9223 C   0  0  2  0  0  0  0  0  0  0  0  0
   12.1062   -0.8197    3.7424 C   0  0  0  0  0  0  0  0  0  0  0  0
   12.3374   -2.1353    3.3384 C   0  0  0  0  0  0  0  0  0  0  0  0
   10.5887   -0.3531    8.2022 C   0  0  0  0  0  0  0  0  0  0  0  0
    9.3533   -0.0385    7.4038 C   0  0  0  0  0  0  0  0  0  0  0  0
   10.5274   -1.2985    9.2359 C   0  0  0  0  0  0  0  0  0  0  0  0
   11.6718   -1.5835    9.9797 C   0  0  0  0  0  0  0  0  0  0  0  0
   12.9348   -0.0094    8.7265 C   0  0  0  0  0  0  0  0  0  0  0  0
   12.7029   -6.6655    3.6644 N   0  0  0  0  0  4  0  0  0  0  0  0
   11.1348   -5.5537    4.9295 O   0  0  0  0  0  0  0  0  0  0  0  0
   12.9208   -4.4699    3.9425 N   0  0  0  0  0  4  0  0  0  0  0  0
   13.9088   -4.8526    3.1470 N   0  0  0  0  0  0  0  0  0  0  0  0
   14.6990   -7.0074    2.1394 C   0  0  0  0  0  0  0  0  0  0  0  0
   13.9482   -7.8438    1.3034 O   0  0  0  0  0  0  0  0  0  0  0  0
   12.7267   -2.7435    5.6108 N   0  0  0  0  0  0  0  0  0  0  0  0
   12.5034   -1.4684    6.0345 C   0  0  0  0  0  0  0  0  0  0  0  0
   11.8909    1.8567    6.7323 F   0  0  0  0  0  0  0  0  0  0  0  0
    9.8334    1.1006    7.2688 F   0  0  0  0  0  0  0  0  0  0  0  0
   11.0674    0.0151    5.7351 F   0  0  0  0  0  0  0  0  0  0  0  0
   12.2090   -0.4626    5.0948 C   0  0  0  0  0  0  0  0  0  0  0  0
   12.1727   -2.4659    2.0335 F   0  0  0  0  0  0  0  0  0  0  0  0
   11.9754    0.9394    5.5084 C   0  0  0  0  0  0  0  0  0  0  0  0
   11.8805    1.8398    4.6298 O   0  0  0  0  0  0  0  0  0  0  0  0
   11.8926    1.2890    6.8981 N   0  0  0  0  0  0  0  0  0  0  0  0
   11.8108    0.2988    7.9342 C   0  0  0  0  0  0  0  0  0  0  0  0
   12.8349   -0.9349    9.7164 N   0  0  0  0  0  0  0  0  0  0  0  0
   14.4641    0.8316    8.5205 Cl  0  0  0  0  0  0  0  0  0  0  0  0
   13.3085   -8.4420    5.6269 H   0  0  0  0  0  0  0  0  0  0  0  0
   14.2033   -8.8834    4.1169 H   0  0  0  0  0  0  0  0  0  0  0  0
   12.8367   -9.9146    4.6928 H   0  0  0  0  0  0  0  0  0  0  0  0
   11.2311   -8.0561    4.2826 H   0  0  0  0  0  0  0  0  0  0  0  0
   12.1023   -8.4996    2.7820 H   0  0  0  0  0  0  0  0  0  0  0  0
   10.8932   -0.6391    8.5767 H   0  0  0  0  0  0  0  0  0  0  0  0
   11.9611    1.4636    9.4623 H   0  0  0  0  0  0  0  0  0  0  0  0
   13.4327    1.1342    8.4605 H   0  0  0  0  0  0  0  0  0  0  0  0
   12.9735    0.0189    9.7990 H   0  0  0  0  0  0  0  0  0  0  0  0
   11.8507   -0.0771    2.9963 H   0  0  0  0  0  0  0  0  0  0  0  0
    8.9857    0.9740    7.6719 H   0  0  0  0  0  0  0  0  0  0  0  0
    9.5836   -0.0692    6.3178 H   0  0  0  0  0  0  0  0  0  0  0  0
    8.5432   -0.7725    7.6014 H   0  0  0  0  0  0  0  0  0  0  0  0
    9.6026   -1.8133    9.4650 H   0  0  0  0  0  0  0  0  0  0  0  0
   11.6325   -2.3140   10.7767 H   0  0  0  0  0  0  0  0  0  0  0  0
   15.3043   -6.3243    1.5074 H   0  0  0  0  0  0  0  0  0  0  0  0
   15.4081   -7.6004    2.7582 H   0  0  0  0  0  0  0  0  0  0  0  0
   13.6404   -8.6041    1.8625 H   0  0  0  0  0  0  0  0  0  0  0  0
   11.7247    2.2885    7.1522 H   0  0  0  0  0  0  0  0  0  0  0  0
  1  2  1  0
  6  7  1  0
  7  8  1  0
  7  9  1  0
 10 11  4  0
  5 11  4  0
 12 13  1  0
 12 14  4  0
 14 15  4  0
  3 17  4  0
  2 17  1  0
  4 17  4  0
  3 18  2  0
  3 19  4  0
  5 19  1  0
 19 20  4  0
  4 20  4  0
  4 21  1  0
 21 22  1  0
  5 23  4  0
 23 24  4  0
  6 24  1  0
  9 25  1  6
  9 26  1  0
  9 27  1  0
 10 28  4  0
 24 28  4  0
 11 29  1  0
 28 30  1  0
 30 31  2  0
 30 32  1  0
 12 33  4  0
 32 33  1  0
 16 33  4  0
 15 34  4  0
 16 34  4  0
 16 35  1  0
  1 36  1  0
  1 37  1  0
  1 38  1  0
  2 39  1  0
  2 40  1  0
  7 41  1  1
  8 42  1  0
  8 43  1  0
  8 44  1  0
 10 45  1  0
 13 46  1  0
 13 47  1  0
 13 48  1  0
 14 49  1  0
 15 50  1  0
 21 51  1  0
 21 52  1  0
 22 53  1  0
 32 54  1  0
M  CHG  2  17   1  19   1
M  END
