1LRH_NLA_D_8190
     RDKit          3D

 14 15  0  0  0  0  0  0  0  0999 V2000
   36.5438   56.2076   48.0345 C   0  0  0  0  0  0  0  0  0  0  0  0
   37.4716   57.2461   48.1105 C   0  0  0  0  0  0  0  0  0  0  0  0
   38.5043   57.0778   49.0217 C   0  0  0  0  0  0  0  0  0  0  0  0
   38.6356   55.9691   49.8162 C   0  0  0  0  0  0  0  0  0  0  0  0
   37.7064   54.9528   49.7252 C   0  0  0  0  0  0  0  0  0  0  0  0
   36.6636   55.0817   48.8307 C   0  0  0  0  0  0  0  0  0  0  0  0
   35.7585   54.0352   48.7776 C   0  0  0  0  0  0  0  0  0  0  0  0
   34.7118   54.1586   47.8841 C   0  0  0  0  0  0  0  0  0  0  0  0
   34.5546   55.2662   47.0701 C   0  0  0  0  0  0  0  0  0  0  0  0
   35.4863   56.3093   47.1459 C   0  0  0  0  0  0  0  0  0  0  0  0
   37.3731   58.4478   47.2831 C   0  0  0  0  0  0  0  0  0  0  0  0
   36.3604   59.3811   47.8367 C   0  0  0  0  0  0  0  0  0  0  0  0
   35.9872   59.3279   49.0571 O   0  0  0  0  0  0  0  0  0  0  0  0
   35.7831   60.3573   47.0155 O   0  0  0  0  0  0  0  0  0  0  0  0
  1  2  2  0
  2  3  1  0
  3  4  2  0
  4  5  1  0
  1  6  1  0
  5  6  2  0
  6  7  1  0
  7  8  2  0
  8  9  1  0
  1 10  1  0
  9 10  2  0
  2 11  1  0
 11 12  1  0
 12 13  2  0
 12 14  1  0
M  END
$$$$
