1LRH_NLA_D_8190
     RDKit          3D

 14 15  0  0  0  0  0  0  0  0999 V2000
   33.7380   76.2194   72.4227 C   0  0  0  0  0  0  0  0  0  0  0  0
   33.0725   77.0759   71.5459 C   0  0  0  0  0  0  0  0  0  0  0  0
   33.4557   77.0057   70.2142 C   0  0  0  0  0  0  0  0  0  0  0  0
   34.4271   76.1565   69.7528 C   0  0  0  0  0  0  0  0  0  0  0  0
   35.0733   75.3171   70.6373 C   0  0  0  0  0  0  0  0  0  0  0  0
   34.7212   75.3562   71.9710 C   0  0  0  0  0  0  0  0  0  0  0  0
   35.3990   74.4950   72.8172 C   0  0  0  0  0  0  0  0  0  0  0  0
   35.0512   74.5297   74.1540 C   0  0  0  0  0  0  0  0  0  0  0  0
   34.0748   75.3767   74.6474 C   0  0  0  0  0  0  0  0  0  0  0  0
   33.4060   76.2368   73.7672 C   0  0  0  0  0  0  0  0  0  0  0  0
   32.0295   77.9988   71.9916 C   0  0  0  0  0  0  0  0  0  0  0  0
   30.6912   77.5194   71.5647 C   0  0  0  0  0  0  0  0  0  0  0  0
   30.5467   76.6619   70.6290 O   0  0  0  0  0  0  0  0  0  0  0  0
   29.5382   78.0077   72.1916 O   0  0  0  0  0  0  0  0  0  0  0  0
  1  2  2  0
  2  3  1  0
  3  4  2  0
  4  5  1  0
  1  6  1  0
  5  6  2  0
  6  7  1  0
  7  8  2  0
  8  9  1  0
  1 10  1  0
  9 10  2  0
  2 11  1  0
 11 12  1  0
 12 13  2  0
 12 14  1  0
M  END
$$$$
