1LRH_NLA_D_8190
     RDKit          3D

 14 15  0  0  0  0  0  0  0  0999 V2000
   41.6251   52.9385   80.0208 C   0  0  0  0  0  0  0  0  0  0  0  0
   42.0461   53.8842   79.0861 C   0  0  0  0  0  0  0  0  0  0  0  0
   43.3775   54.2673   79.1613 C   0  0  0  0  0  0  0  0  0  0  0  0
   44.2552   53.7664   80.0867 C   0  0  0  0  0  0  0  0  0  0  0  0
   43.8181   52.8313   81.0027 C   0  0  0  0  0  0  0  0  0  0  0  0
   42.5004   52.4236   80.9614 C   0  0  0  0  0  0  0  0  0  0  0  0
   42.1116   51.4845   81.9016 C   0  0  0  0  0  0  0  0  0  0  0  0
   40.7933   51.0724   81.8656 C   0  0  0  0  0  0  0  0  0  0  0  0
   39.8856   51.5611   80.9428 C   0  0  0  0  0  0  0  0  0  0  0  0
   40.3080   52.5106   80.0037 C   0  0  0  0  0  0  0  0  0  0  0  0
   41.1464   54.4467   78.0799 C   0  0  0  0  0  0  0  0  0  0  0  0
   40.6109   53.3764   77.2019 C   0  0  0  0  0  0  0  0  0  0  0  0
   39.4519   53.4543   76.6706 O   0  0  0  0  0  0  0  0  0  0  0  0
   41.3811   52.2382   76.9336 O   0  0  0  0  0  0  0  0  0  0  0  0
  1  2  2  0
  2  3  1  0
  3  4  2  0
  4  5  1  0
  1  6  1  0
  5  6  2  0
  6  7  1  0
  7  8  2  0
  8  9  1  0
  1 10  1  0
  9 10  2  0
  2 11  1  0
 11 12  1  0
 12 13  2  0
 12 14  1  0
M  END
$$$$
