7ED2_A3P_A_301
     RDKit          3D

 27 29  0  0  0  0  0  0  0  0999 V2000
  -18.8317  -18.1366   17.0104 P   0  0  2  0  0  5  0  0  0  0  0  0
  -19.7610  -16.9690   16.9972 O   0  0  0  0  0  0  0  0  0  0  0  0
  -17.6065  -17.9758   15.8303 O   0  0  0  0  0  0  0  0  0  0  0  0
  -19.6874  -19.5700   16.6401 O   0  0  0  0  0  0  0  0  0  0  0  0
  -18.2269  -23.6748   18.9108 P   0  0  2  0  0  5  0  0  0  0  0  0
  -18.6411  -22.8937   17.6845 O   0  0  0  0  0  0  0  0  0  0  0  0
  -17.4214  -25.0823   18.4126 O   0  0  0  0  0  0  0  0  0  0  0  0
  -19.6028  -24.2019   19.7742 O   0  0  0  0  0  0  0  0  0  0  0  0
  -17.2226  -22.7446   19.9126 O   0  0  0  0  0  0  0  0  0  0  0  0
  -16.7252  -21.6840   19.1674 C   0  0  0  0  0  0  0  0  0  0  0  0
  -17.4821  -20.3959   19.3893 C   0  0  1  0  0  0  0  0  0  0  0  0
  -17.3368  -19.9419   20.6908 O   0  0  0  0  0  0  0  0  0  0  0  0
  -17.0414  -19.2769   18.4807 C   0  0  1  0  0  0  0  0  0  0  0  0
  -18.0829  -18.3623   18.4772 O   0  0  0  0  0  0  0  0  0  0  0  0
  -15.9753  -18.6382   19.3844 C   0  0  1  0  0  0  0  0  0  0  0  0
  -15.7313  -17.3201   18.9947 O   0  0  0  0  0  0  0  0  0  0  0  0
  -16.8119  -18.6706   20.6612 C   0  0  2  0  0  0  0  0  0  0  0  0
  -16.0344  -18.3362   21.8159 N   0  0  0  0  0  0  0  0  0  0  0  0
  -15.1871  -19.1761   22.4417 C   0  0  0  0  0  0  0  0  0  0  0  0
  -14.6322  -18.5336   23.4780 N   0  0  0  0  0  0  0  0  0  0  0  0
  -15.1344  -17.2660   23.5114 C   0  0  0  0  0  0  0  0  0  0  0  0
  -14.8835  -16.2095   24.3822 C   0  0  0  0  0  0  0  0  0  0  0  0
  -13.9650  -16.3769   25.4510 N   0  0  0  0  0  0  0  0  0  0  0  0
  -15.5454  -15.0598   24.1525 N   0  0  0  0  0  0  0  0  0  0  0  0
  -16.4067  -14.9504   23.1253 C   0  0  0  0  0  0  0  0  0  0  0  0
  -16.6480  -15.9849   22.2782 N   0  0  0  0  0  0  0  0  0  0  0  0
  -16.0147  -17.1590   22.4590 C   0  0  0  0  0  0  0  0  0  0  0  0
  1  2  2  0
  1  3  1  6
  1  4  1  0
  5  6  2  0
  5  7  1  6
  5  8  1  0
  5  9  1  0
 10  9  1  6
 11 10  1  0
 11 12  1  1
 11 13  1  0
  1 14  1  0
 13 14  1  1
 13 15  1  0
 15 16  1  6
 12 17  1  0
 15 17  1  0
 17 18  1  1
 18 19  1  0
 19 20  2  0
 20 21  1  0
 21 22  2  0
 22 23  1  0
 22 24  1  0
 24 25  2  0
 25 26  1  0
 18 27  1  0
 21 27  1  0
 26 27  2  0
M  END
$$$$
