7RWS_4UR_A_401
     RDKit          3D

 45 51  0  0  0  0  0  0  0  0999 V2000
   18.9119   53.7832   41.0397 C   0  0  2  0  0  0  0  0  0  0  0  0
   19.5415   52.7825   40.1868 C   0  0  0  0  0  0  0  0  0  0  0  0
   15.3663   50.7310   38.9685 C   0  0  1  0  0  0  0  0  0  0  0  0
   12.0053   48.0282   33.4847 N   0  0  0  0  0  0  0  0  0  0  0  0
   12.0492   49.2754   34.2036 C   0  0  0  0  0  0  0  0  0  0  0  0
   12.4440   49.2913   35.4855 N   0  0  0  0  0  0  0  0  0  0  0  0
   12.4730   50.4704   36.1241 C   0  0  0  0  0  0  0  0  0  0  0  0
   12.0963   51.6022   35.4308 C   0  0  0  0  0  0  0  0  0  0  0  0
   12.2211   52.6128   36.3035 N   0  0  0  0  0  0  0  0  0  0  0  0
   12.6549   52.1321   37.4830 C   0  0  0  0  0  0  0  0  0  0  0  0
   12.8154   50.7905   37.3793 N   0  0  0  0  0  0  0  0  0  0  0  0
   13.2700   49.9832   38.4796 C   0  0  2  0  0  0  0  0  0  0  0  0
   13.2141   50.5509   39.7097 O   0  0  0  0  0  0  0  0  0  0  0  0
   14.4539   51.2044   39.9973 C   0  0  2  0  0  0  0  0  0  0  0  0
   14.0654   52.6292   40.0988 C   0  0  0  0  0  0  0  0  0  0  0  0
   14.8428   53.6761   39.8714 O   0  0  0  0  0  0  0  0  0  0  0  0
   15.2869   54.8116   40.9462 P   0  0  1  0  0  0  0  0  0  0  0  0
   15.3265   56.1649   40.2245 O   0  0  0  0  0  0  0  0  0  0  0  0
   13.9844   54.9870   42.0536 O   0  0  0  0  0  0  0  0  0  0  0  0
   16.6362   54.6332   41.8248 O   0  0  0  0  0  0  0  0  0  0  0  0
   17.6938   55.4686   41.7956 C   0  0  2  0  0  0  0  0  0  0  0  0
   18.4959   55.0938   40.5571 C   0  0  2  0  0  0  0  0  0  0  0  0
   17.7189   55.3451   39.5151 O   0  0  0  0  0  0  0  0  0  0  0  0
   19.0659   51.4565   40.2806 O   0  0  0  0  0  0  0  0  0  0  0  0
   17.4855   51.4766   39.8973 P   0  0  2  0  0  0  0  0  0  0  0  0
   17.3446   52.4337   38.7981 O   0  0  0  0  0  0  0  0  0  0  0  0
   16.6517   51.6608   41.3371 O   0  0  0  0  0  0  0  0  0  0  0  0
   16.6259   50.1729   39.3382 O   0  0  0  0  0  0  0  0  0  0  0  0
   14.6672   49.5197   38.3852 C   0  0  2  0  0  0  0  0  0  0  0  0
   14.8176   48.4350   39.2540 O   0  0  0  0  0  0  0  0  0  0  0  0
   19.7421   54.3213   42.0778 O   0  0  0  0  0  0  0  0  0  0  0  0
   18.7503   54.9960   42.8027 C   0  0  1  0  0  0  0  0  0  0  0  0
   19.2269   56.0189   43.6689 N   0  0  0  0  0  0  0  0  0  0  0  0
   20.5383   56.3324   43.8769 C   0  0  0  0  0  0  0  0  0  0  0  0
   20.6638   57.3298   44.7384 N   0  0  0  0  0  0  0  0  0  0  0  0
   19.4366   57.6934   45.1153 C   0  0  0  0  0  0  0  0  0  0  0  0
   19.0590   58.6847   45.9964 C   0  0  0  0  0  0  0  0  0  0  0  0
   19.9858   59.5206   46.6778 N   0  0  0  0  0  0  0  0  0  0  0  0
   17.7137   58.8211   46.1815 N   0  0  0  0  0  0  0  0  0  0  0  0
   16.8467   58.0180   45.5258 C   0  0  0  0  0  0  0  0  0  0  0  0
   17.2503   57.0605   44.6728 N   0  0  0  0  0  0  0  0  0  0  0  0
   18.5529   56.8792   44.4508 C   0  0  0  0  0  0  0  0  0  0  0  0
   11.6914   51.5775   34.1121 C   0  0  0  0  0  0  0  0  0  0  0  0
   11.3477   52.6379   33.4929 O   0  0  0  0  0  0  0  0  0  0  0  0
   11.6794   50.3671   33.5138 N   0  0  0  0  0  0  0  0  0  0  0  0
  1  2  1  6
  4  5  1  0
  5  6  2  0
  6  7  1  0
  7  8  2  0
  8  9  1  0
  9 10  2  0
  7 11  1  0
 10 11  1  0
 12 11  1  6
 12 13  1  0
  3 14  1  0
 13 14  1  0
 14 15  1  6
 15 16  1  0
 16 17  1  0
 17 18  2  0
 17 19  1  1
 17 20  1  0
 21 20  1  1
  1 22  1  0
 21 22  1  0
 22 23  1  6
  2 24  1  0
 24 25  1  0
 25 26  2  0
 25 27  1  1
 25 28  1  0
  3 28  1  1
  3 29  1  0
 12 29  1  0
 29 30  1  1
  1 31  1  0
 31 32  1  0
 21 32  1  0
 32 33  1  6
 33 34  1  0
 34 35  2  0
 35 36  1  0
 36 37  2  0
 37 38  1  0
 37 39  1  0
 39 40  2  0
 40 41  1  0
 36 42  1  0
 33 42  1  0
 41 42  2  0
  8 43  1  0
 43 44  2  0
  5 45  1  0
 43 45  1  0
M  END
$$$$
