6XUM_30L_A_401
     RDKit          3D

 38 39  0  0  0  0  0  0  0  0999 V2000
   84.5011   10.9908   66.4581 N   0  0  0  0  0  0  0  0  0  0  0  0
   83.2564   11.0274   67.2189 C   0  0  1  0  0  0  0  0  0  0  0  0
   83.4082   10.2084   68.4702 C   0  0  0  0  0  0  0  0  0  0  0  0
   82.7049    9.0011   68.6103 C   0  0  0  0  0  0  0  0  0  0  0  0
   82.8926    8.1885   69.7429 C   0  0  0  0  0  0  0  0  0  0  0  0
   82.1754    6.9476   69.8748 N   0  0  0  0  0  4  0  0  0  0  0  0
   82.5891    6.0504   70.6382 O   0  0  0  0  0  0  0  0  0  0  0  0
   81.0246    6.7256   69.1540 O   0  0  0  0  0  1  0  0  0  0  0  0
   83.8019    8.6005   70.7336 C   0  0  0  0  0  0  0  0  0  0  0  0
   84.5125    9.7949   70.5899 C   0  0  0  0  0  0  0  0  0  0  0  0
   84.3218   10.5942   69.4618 C   0  0  0  0  0  0  0  0  0  0  0  0
   85.6692   11.7053   66.8805 C   0  0  0  0  0  0  0  0  0  0  0  0
   85.5655   12.9014   67.2646 O   0  0  0  0  0  0  0  0  0  0  0  0
   86.9986   11.0576   66.8669 C   0  0  0  0  0  0  0  0  0  0  0  0
   88.1400   11.8287   67.1431 C   0  0  0  0  0  0  0  0  0  0  0  0
   89.4059   11.2414   67.1554 C   0  0  0  0  0  0  0  0  0  0  0  0
   89.5457    9.8764   66.9050 C   0  0  0  0  0  0  0  0  0  0  0  0
   90.7772    9.3094   66.9197 F   0  0  0  0  0  0  0  0  0  0  0  0
   88.4193    9.0918   66.6469 C   0  0  0  0  0  0  0  0  0  0  0  0
   87.1334    9.6703   66.6309 C   0  0  0  0  0  0  0  0  0  0  0  0
   85.9770    8.9000   66.4065 O   0  0  0  0  0  0  0  0  0  0  0  0
   85.6131    8.2821   65.1721 C   0  0  2  0  0  0  0  0  0  0  0  0
   86.4733    7.0876   64.9073 C   0  0  0  0  0  0  0  0  0  0  0  0
   86.6779    6.7083   63.7237 O   0  0  0  0  0  0  0  0  0  0  0  0
   87.0662    6.4121   65.9690 O   0  0  0  0  0  0  0  0  0  0  0  0
   84.5808   10.3023   65.6775 H   0  0  0  0  0  0  0  0  0  0  0  0
   82.9798   12.0761   67.4599 H   0  0  0  0  0  0  0  0  0  0  0  0
   82.4347   10.6124   66.5971 H   0  0  0  0  0  0  0  0  0  0  0  0
   82.0219    8.6920   67.8288 H   0  0  0  0  0  0  0  0  0  0  0  0
   83.9715    7.9950   71.6132 H   0  0  0  0  0  0  0  0  0  0  0  0
   85.2199   10.0972   71.3509 H   0  0  0  0  0  0  0  0  0  0  0  0
   84.8918   11.5098   69.3578 H   0  0  0  0  0  0  0  0  0  0  0  0
   88.0517   12.8901   67.3356 H   0  0  0  0  0  0  0  0  0  0  0  0
   90.2792   11.8464   67.3595 H   0  0  0  0  0  0  0  0  0  0  0  0
   88.5607    8.0355   66.4680 H   0  0  0  0  0  0  0  0  0  0  0  0
   85.6727    9.0135   64.3378 H   0  0  0  0  0  0  0  0  0  0  0  0
   84.5585    7.9442   65.2433 H   0  0  0  0  0  0  0  0  0  0  0  0
   87.5441    5.5313   65.8205 H   0  0  0  0  0  0  0  0  0  0  0  0
  1  2  1  0
  2  3  1  0
  3  4  2  0
  4  5  1  0
  5  6  1  0
  6  7  2  0
  6  8  1  0
  5  9  2  0
  9 10  1  0
 10 11  2  0
  3 11  1  0
  1 12  1  0
 12 13  2  0
 12 14  1  0
 14 15  2  0
 15 16  1  0
 16 17  2  0
 17 18  1  0
 17 19  1  0
 14 20  1  0
 19 20  2  0
 20 21  1  0
 21 22  1  0
 22 23  1  0
 23 24  2  0
 23 25  1  0
  1 26  1  0
  2 27  1  1
  2 28  1  0
  4 29  1  0
  9 30  1  0
 10 31  1  0
 11 32  1  0
 15 33  1  0
 16 34  1  0
 19 35  1  0
 22 36  1  6
 22 37  1  0
 25 38  1  0
M  CHG  2   6   1   8  -1
M  END
