7TH4_FFO_A_501
     RDKit          3D

 57 59  0  0  0  0  0  0  0  0999 V2000
   12.1615    0.8016  -10.3561 N   0  0  0  0  0  0  0  0  0  0  0  0
   11.0351    0.4997  -11.0538 C   0  0  0  0  0  0  0  0  0  0  0  0
   11.0821   -0.4951  -12.0765 N   0  0  0  0  0  0  0  0  0  0  0  0
    9.8721    1.1580  -10.7871 N   0  0  0  0  0  0  0  0  0  0  0  0
    9.8126    2.1117   -9.8172 C   0  0  0  0  0  0  0  0  0  0  0  0
    8.7361    2.7386   -9.6253 O   0  0  0  0  0  0  0  0  0  0  0  0
   10.9581    2.4058   -9.0577 C   0  0  0  0  0  0  0  0  0  0  0  0
   10.9723    3.3924   -8.0034 N   0  0  0  0  0  0  0  0  0  0  0  0
   12.2532    4.1110   -7.8211 C   0  0  2  0  0  0  0  0  0  0  0  0
   13.3723    3.0716   -7.6059 C   0  0  2  0  0  0  0  0  0  0  0  0
   13.3575    2.0753   -8.6803 N   0  0  0  0  0  0  0  0  0  0  0  0
   12.1483    1.7395   -9.3747 C   0  0  0  0  0  0  0  0  0  0  0  0
   12.2309    5.1615   -6.6865 C   0  0  1  0  0  0  0  0  0  0  0  0
   13.1485    6.2680   -6.9691 N   0  0  0  0  0  0  0  0  0  0  0  0
   12.1602    9.6832   -9.3307 C   0  0  0  0  0  0  0  0  0  0  0  0
   12.2409    9.7958   -7.9323 C   0  0  0  0  0  0  0  0  0  0  0  0
   12.5658    8.6854   -7.1474 C   0  0  0  0  0  0  0  0  0  0  0  0
   12.8151    7.4360   -7.7454 C   0  0  0  0  0  0  0  0  0  0  0  0
   12.7538    7.3312   -9.1428 C   0  0  0  0  0  0  0  0  0  0  0  0
   12.4333    8.4418   -9.9280 C   0  0  0  0  0  0  0  0  0  0  0  0
   11.8206   10.8532  -10.1744 C   0  0  0  0  0  0  0  0  0  0  0  0
   11.3264   10.6656  -11.3199 O   0  0  0  0  0  0  0  0  0  0  0  0
   12.0264   12.1944   -9.7001 N   0  0  0  0  0  0  0  0  0  0  0  0
   10.9113   13.0458   -9.2702 C   0  0  1  0  0  0  0  0  0  0  0  0
    9.6996   12.1970   -8.8303 C   0  0  1  0  0  0  0  0  0  0  0  0
    8.7002   11.9342   -9.9688 C   0  0  2  0  0  0  0  0  0  0  0  0
    7.5967   12.9469   -9.9871 C   0  0  0  0  0  0  0  0  0  0  0  0
    7.5732   13.8709   -9.1306 O   0  0  0  0  0  0  0  0  0  0  0  0
    6.6142   12.8843  -10.9703 O   0  0  0  0  0  0  0  0  0  0  0  0
   11.3566   13.9236   -8.1365 C   0  0  0  0  0  0  0  0  0  0  0  0
   12.5851   14.0885   -7.9043 O   0  0  0  0  0  0  0  0  0  0  0  0
   10.4089   14.5342   -7.3208 O   0  0  0  0  0  0  0  0  0  0  0  0
    9.9308    3.3958   -7.0033 C   0  0  0  0  0  0  0  0  0  0  0  0
    8.9597    2.5964   -7.0805 O   0  0  0  0  0  0  0  0  0  0  0  0
   10.2255   -0.7440  -12.6191 H   0  0  0  0  0  0  0  0  0  0  0  0
   11.9777   -0.9866  -12.2928 H   0  0  0  0  0  0  0  0  0  0  0  0
    9.0144    0.9364  -11.3424 H   0  0  0  0  0  0  0  0  0  0  0  0
   12.4753    4.6438   -8.7714 H   0  0  0  0  0  0  0  0  0  0  0  0
   13.2246    2.5540   -6.6337 H   0  0  0  0  0  0  0  0  0  0  0  0
   14.3638    3.5731   -7.5919 H   0  0  0  0  0  0  0  0  0  0  0  0
   14.2341    1.5483   -8.8938 H   0  0  0  0  0  0  0  0  0  0  0  0
   11.2062    5.5616   -6.5377 H   0  0  0  0  0  0  0  0  0  0  0  0
   12.5409    4.6775   -5.7343 H   0  0  0  0  0  0  0  0  0  0  0  0
   14.1142    6.1943   -6.5750 H   0  0  0  0  0  0  0  0  0  0  0  0
   12.0808   10.7460   -7.4405 H   0  0  0  0  0  0  0  0  0  0  0  0
   12.6276    8.8183   -6.0768 H   0  0  0  0  0  0  0  0  0  0  0  0
   12.9497    6.3825   -9.6267 H   0  0  0  0  0  0  0  0  0  0  0  0
   12.3857    8.3255  -11.0038 H   0  0  0  0  0  0  0  0  0  0  0  0
   12.9971   12.5783   -9.6650 H   0  0  0  0  0  0  0  0  0  0  0  0
   10.5950   13.6964  -10.1148 H   0  0  0  0  0  0  0  0  0  0  0  0
   10.0568   11.2180   -8.4409 H   0  0  0  0  0  0  0  0  0  0  0  0
    9.1687   12.7089   -7.9964 H   0  0  0  0  0  0  0  0  0  0  0  0
    8.2557   10.9252   -9.8292 H   0  0  0  0  0  0  0  0  0  0  0  0
    9.2204   11.9307  -10.9501 H   0  0  0  0  0  0  0  0  0  0  0  0
    6.1018   13.7133  -11.2461 H   0  0  0  0  0  0  0  0  0  0  0  0
   10.4999   15.5085   -7.0580 H   0  0  0  0  0  0  0  0  0  0  0  0
    9.9700    4.0676   -6.1587 H   0  0  0  0  0  0  0  0  0  0  0  0
  1  2  2  0
  2  3  1  0
  2  4  1  0
  4  5  1  0
  5  6  2  0
  5  7  1  0
  7  8  1  0
  8  9  1  0
  9 10  1  0
 10 11  1  0
  1 12  1  0
  7 12  2  0
 11 12  1  0
  9 13  1  0
 13 14  1  0
 15 16  2  0
 16 17  1  0
 14 18  1  0
 17 18  2  0
 18 19  1  0
 15 20  1  0
 19 20  2  0
 15 21  1  0
 21 22  2  0
 21 23  1  0
 23 24  1  0
 24 25  1  0
 25 26  1  0
 26 27  1  0
 27 28  2  0
 27 29  1  0
 24 30  1  0
 30 31  2  0
 30 32  1  0
  8 33  1  0
 33 34  2  0
  3 35  1  0
  3 36  1  0
  4 37  1  0
  9 38  1  6
 10 39  1  1
 10 40  1  0
 11 41  1  0
 13 42  1  1
 13 43  1  0
 14 44  1  0
 16 45  1  0
 17 46  1  0
 19 47  1  0
 20 48  1  0
 23 49  1  0
 24 50  1  6
 25 51  1  1
 25 52  1  0
 26 53  1  1
 26 54  1  0
 29 55  1  0
 32 56  1  0
 33 57  1  0
M  END
