8BRO_R7E_A_201
     RDKit          3D

 48 50  0  0  0  0  0  0  0  0999 V2000
   28.4735   -0.0506    8.9066 N   0  0  0  0  0  0  0  0  0  0  0  0
   25.8199    1.5889   11.6596 C   0  0  2  0  0  0  0  0  0  0  0  0
   26.9897    0.7254   12.1016 C   0  0  2  0  0  0  0  0  0  0  0  0
   27.6710    1.3205   13.3114 C   0  0  0  0  0  0  0  0  0  0  0  0
   29.7437    0.1593    9.2545 C   0  0  0  0  0  0  0  0  0  0  0  0
   30.0130    1.1705   10.2510 C   0  0  0  0  0  0  0  0  0  0  0  0
   30.5445    2.9453   11.4361 C   0  0  0  0  0  0  0  0  0  0  0  0
   29.8348    0.7259   14.3240 C   0  0  0  0  0  0  0  0  0  0  0  0
   29.7041    1.6730   16.5073 C   0  0  0  0  0  0  0  0  0  0  0  0
   29.9314    3.0570   14.5124 C   0  0  0  0  0  0  0  0  0  0  0  0
   27.4531    0.0470    9.8682 C   0  0  1  0  0  0  0  0  0  0  0  0
   27.9270    0.6738   11.0036 O   0  0  0  0  0  0  0  0  0  0  0  0
   25.2067    1.0505   10.3917 C   0  0  1  0  0  0  0  0  0  0  0  0
   24.1375    1.8707    9.9250 O   0  0  0  0  0  0  0  0  0  0  0  0
   26.2473    0.8221    9.3039 C   0  0  2  0  0  0  0  0  0  0  0  0
   25.6697    0.1775    8.1574 O   0  0  0  0  0  0  0  0  0  0  0  0
   26.2478    2.9218   11.3617 O   0  0  0  0  0  0  0  0  0  0  0  0
   30.6888   -0.4919    8.7471 O   0  0  0  0  0  0  0  0  0  0  0  0
   29.6859    0.9195   11.5470 O   0  0  0  0  0  0  0  0  0  0  0  0
   30.0734    2.0104   12.2615 C   0  0  0  0  0  0  0  0  0  0  0  0
   30.5309    2.3954   10.1446 C   0  0  0  0  0  0  0  0  0  0  0  0
   29.9157    1.9498   13.7133 C   0  0  0  0  0  0  0  0  0  0  0  0
   29.8410    2.9322   15.9006 C   0  0  0  0  0  0  0  0  0  0  0  0
   29.7201    0.5605   15.7015 C   0  0  0  0  0  0  0  0  0  0  0  0
   29.5280   -0.8474   16.1948 C   0  0  0  0  0  0  0  0  0  0  0  0
   28.2545   -1.0928   17.0684 N   0  0  0  0  0  0  0  0  0  0  0  0
   28.2502   -0.2745    7.9742 H   0  0  0  0  0  0  0  0  0  0  0  0
   25.1161    1.5824   12.4655 H   0  0  0  0  0  0  0  0  0  0  0  0
   26.6417   -0.2515   12.3652 H   0  0  0  0  0  0  0  0  0  0  0  0
   28.0291    2.3002   13.0732 H   0  0  0  0  0  0  0  0  0  0  0  0
   28.4940    0.6999   13.5985 H   0  0  0  0  0  0  0  0  0  0  0  0
   26.9724    1.3827   14.1195 H   0  0  0  0  0  0  0  0  0  0  0  0
   30.8593    3.8929   11.6969 H   0  0  0  0  0  0  0  0  0  0  0  0
   29.8603   -0.1185   13.7312 H   0  0  0  0  0  0  0  0  0  0  0  0
   29.5946    1.5859   17.5298 H   0  0  0  0  0  0  0  0  0  0  0  0
   30.0106    3.9938   14.0870 H   0  0  0  0  0  0  0  0  0  0  0  0
   27.1338   -0.9421   10.1224 H   0  0  0  0  0  0  0  0  0  0  0  0
   24.7912    0.0954   10.6368 H   0  0  0  0  0  0  0  0  0  0  0  0
   24.4805    2.7478    9.6928 H   0  0  0  0  0  0  0  0  0  0  0  0
   26.6062    1.7727    8.9689 H   0  0  0  0  0  0  0  0  0  0  0  0
   25.3286   -0.6935    8.4137 H   0  0  0  0  0  0  0  0  0  0  0  0
   26.8837    2.9012   10.6296 H   0  0  0  0  0  0  0  0  0  0  0  0
   30.8587    2.8512    9.2788 H   0  0  0  0  0  0  0  0  0  0  0  0
   29.8753    3.7788   16.4899 H   0  0  0  0  0  0  0  0  0  0  0  0
   30.3840   -1.1100   16.7806 H   0  0  0  0  0  0  0  0  0  0  0  0
   29.4003   -1.4482   15.3186 H   0  0  0  0  0  0  0  0  0  0  0  0
   28.3184   -0.5423   17.9248 H   0  0  0  0  0  0  0  0  0  0  0  0
   28.1900   -2.0829   17.3048 H   0  0  0  0  0  0  0  0  0  0  0  0
  2  3  1  0
  3  4  1  0
  1  5  1  0
  5  6  1  0
 11  1  1  0
  3 12  1  0
 11 12  1  0
  2 13  1  0
 13 14  1  0
 13 15  1  0
 11 15  1  0
 15 16  1  0
  2 17  1  0
  5 18  2  0
  6 19  4  0
 19 20  4  0
  7 20  4  0
  6 21  4  0
  7 21  4  0
 20 22  1  0
 10 22  4  0
  8 22  4  0
 10 23  4  0
  9 23  4  0
  8 24  4  0
  9 24  4  0
 24 25  1  0
 25 26  1  0
  1 27  1  0
  2 28  1  1
  3 29  1  1
  4 30  1  0
  4 31  1  0
  4 32  1  0
  7 33  1  0
  8 34  1  0
  9 35  1  0
 10 36  1  0
 11 37  1  1
 13 38  1  1
 14 39  1  0
 15 40  1  6
 16 41  1  0
 17 42  1  0
 21 43  1  0
 23 44  1  0
 25 45  1  0
 25 46  1  0
 26 47  1  0
 26 48  1  0
M  END
