7UXS_OJC_B_501
     RDKit          3D

 56 60  0  0  0  0  0  0  0  0999 V2000
   -3.5037    2.3322   -2.4422 N   0  0  0  0  0  0  0  0  0  0  0  0
   -3.0876    1.1238   -1.9431 C   0  0  0  0  0  0  0  0  0  0  0  0
    0.3549   -1.1549   -2.9508 O   0  0  0  0  0  0  0  0  0  0  0  0
   -2.6844    3.1010   -3.2208 C   0  0  0  0  0  0  0  0  0  0  0  0
   -1.4108    2.6139   -3.4927 C   0  0  0  0  0  0  0  0  0  0  0  0
   -1.0242    1.4187   -2.9918 C   0  0  0  0  0  0  0  0  0  0  0  0
    1.5616   -2.6721    3.7133 C   0  0  0  0  0  0  0  0  0  0  0  0
    1.8989   -1.1718    3.5958 C   0  0  2  0  0  0  0  0  0  0  0  0
    0.6544   -0.2924    3.5992 C   0  0  2  0  0  0  0  0  0  0  0  0
    0.3852   -0.1253    2.1219 C   0  0  2  0  0  0  0  0  0  0  0  0
    1.7641   -0.3417    1.4604 C   0  0  1  0  0  0  0  0  0  0  0  0
    0.5874    2.2568   -4.0895 C   0  0  0  0  0  0  0  0  0  0  0  0
    1.1039    0.0473   -2.9770 C   0  0  2  0  0  0  0  0  0  0  0  0
    1.7116    0.3005   -1.5852 C   0  0  1  0  0  0  0  0  0  0  0  0
    0.9620   -0.6885   -0.7280 C   0  0  1  0  0  0  0  0  0  0  0  0
    0.6649   -1.7846   -1.7328 C   0  0  1  0  0  0  0  0  0  0  0  0
   -0.4723   -2.6950   -1.2623 C   0  0  0  0  0  0  0  0  0  0  0  0
   -1.8325    0.6564   -2.2161 N   0  0  0  0  0  0  0  0  0  0  0  0
    0.2369    1.1619   -3.3663 N   0  0  0  0  0  0  0  0  0  0  0  0
   -0.4107    3.1774   -4.1961 N   0  0  0  0  0  0  0  0  0  0  0  0
   -3.1319    4.3597   -3.7245 N   0  0  0  0  0  0  0  0  0  0  0  0
   -0.0147   -3.4249   -0.1463 O   0  0  0  0  0  0  0  0  0  0  0  0
   -0.1963    1.1189    1.8046 O   0  0  0  0  0  0  0  0  0  0  0  0
    0.9570    0.9369    4.2109 O   0  0  0  0  0  0  0  0  0  0  0  0
    3.0860    0.0082   -1.5867 O   0  0  0  0  0  0  0  0  0  0  0  0
   -2.1215   -4.9762   -0.4399 O   0  0  0  0  0  0  0  0  0  0  0  0
   -2.3453   -3.0620    1.3269 O   0  0  0  0  0  0  0  0  0  0  0  0
   -0.7298   -5.3169    1.7395 O   0  0  0  0  0  0  0  0  0  0  0  0
    0.6318   -5.3732    3.9568 O   0  0  0  0  0  0  0  0  0  0  0  0
   -1.5392   -3.9247    3.9819 O   0  0  0  0  0  0  0  0  0  0  0  0
    0.7572   -3.0905    2.6275 O   0  0  0  0  0  0  0  0  0  0  0  0
    2.6322   -0.9175    2.4162 O   0  0  0  0  0  0  0  0  0  0  0  0
    1.7131   -1.2200    0.3501 O   0  0  0  0  0  0  0  0  0  0  0  0
   -1.3316   -4.2077    0.5969 P   0  0  2  0  0  5  0  0  0  0  0  0
   -0.1893   -4.4387    3.0952 P   0  0  2  0  0  5  0  0  0  0  0  0
   -3.7562    0.5376   -1.3280 H   0  0  0  0  0  0  0  0  0  0  0  0
    1.0761   -2.8219    4.7059 H   0  0  0  0  0  0  0  0  0  0  0  0
    2.5093   -3.2531    3.7052 H   0  0  0  0  0  0  0  0  0  0  0  0
    2.5387   -0.9094    4.4676 H   0  0  0  0  0  0  0  0  0  0  0  0
   -0.2028   -0.7844    4.1178 H   0  0  0  0  0  0  0  0  0  0  0  0
   -0.3185   -0.9267    1.8060 H   0  0  0  0  0  0  0  0  0  0  0  0
    2.2152    0.6287    1.1544 H   0  0  0  0  0  0  0  0  0  0  0  0
    1.5681    2.3961   -4.5258 H   0  0  0  0  0  0  0  0  0  0  0  0
    1.9106   -0.0617   -3.7363 H   0  0  0  0  0  0  0  0  0  0  0  0
    1.5356    1.3402   -1.2205 H   0  0  0  0  0  0  0  0  0  0  0  0
   -0.0004   -0.2328   -0.4065 H   0  0  0  0  0  0  0  0  0  0  0  0
    1.5729   -2.4146   -1.8886 H   0  0  0  0  0  0  0  0  0  0  0  0
   -1.3648   -2.0715   -1.0214 H   0  0  0  0  0  0  0  0  0  0  0  0
   -0.7287   -3.3949   -2.0882 H   0  0  0  0  0  0  0  0  0  0  0  0
   -2.5113    4.9522   -4.3199 H   0  0  0  0  0  0  0  0  0  0  0  0
   -4.0926    4.7022   -3.5011 H   0  0  0  0  0  0  0  0  0  0  0  0
    0.4820    1.8299    1.9441 H   0  0  0  0  0  0  0  0  0  0  0  0
    0.0917    1.3441    4.4780 H   0  0  0  0  0  0  0  0  0  0  0  0
    3.5372    0.7872   -2.0049 H   0  0  0  0  0  0  0  0  0  0  0  0
   -3.1224   -3.5822    1.6531 H   0  0  0  0  0  0  0  0  0  0  0  0
   -1.2531   -3.0989    4.4452 H   0  0  0  0  0  0  0  0  0  0  0  0
  1  2  2  0
  1  4  1  0
  4  5  2  0
  5  6  1  0
  8  7  1  0
  8  9  1  0
  9 10  1  0
 10 11  1  0
  3 13  1  0
 13 14  1  0
 14 15  1  0
  3 16  1  0
 15 16  1  0
 16 17  1  0
  2 18  1  0
  6 18  2  0
  6 19  1  0
 12 19  1  0
 13 19  1  0
  5 20  1  0
 12 20  2  0
  4 21  1  0
 17 22  1  0
 10 23  1  0
  9 24  1  0
 14 25  1  0
  7 31  1  0
 11 32  1  0
  8 32  1  0
 15 33  1  0
 11 33  1  0
 28 34  1  0
 22 34  1  0
 34 27  1  1
 26 34  2  0
 35 30  1  1
 28 35  1  0
 31 35  1  0
 29 35  2  0
  2 36  1  0
  7 37  1  0
  7 38  1  0
  8 39  1  1
  9 40  1  1
 10 41  1  6
 11 42  1  6
 12 43  1  0
 13 44  1  6
 14 45  1  1
 15 46  1  1
 16 47  1  6
 17 48  1  0
 17 49  1  0
 21 50  1  0
 21 51  1  0
 23 52  1  0
 24 53  1  0
 25 54  1  0
 27 55  1  0
 30 56  1  0
M  END
