7Z2O_IAJ_A_701
     RDKit          3D

 14 16  0  0  0  0  0  0  0  0999 V2000
  -19.1495    5.4318   39.0238 C   0  0  0  0  0  0  0  0  0  0  0  0
  -18.8153    4.4145   39.9078 C   0  0  0  0  0  0  0  0  0  0  0  0
  -18.9692    3.1021   39.5298 C   0  0  0  0  0  0  0  0  0  0  0  0
  -19.1474    0.5423   39.1092 C   0  0  0  0  0  0  0  0  0  0  0  0
  -19.9093    0.4848   37.1332 C   0  0  0  0  0  0  0  0  0  0  0  0
  -19.4348    2.6609   38.3290 C   0  0  0  0  0  0  0  0  0  0  0  0
  -19.2915   -0.7476   38.7564 N   0  0  0  0  0  0  0  0  0  0  0  0
  -19.7653   -0.7804   37.5276 N   0  0  0  0  0  0  0  0  0  0  0  0
  -19.6241    5.0234   37.7991 C   0  0  0  0  0  0  0  0  0  0  0  0
  -19.5272    1.3709   38.1102 N   0  0  0  0  0  0  0  0  0  0  0  0
  -20.5390    4.4865   35.2515 C   0  0  0  0  0  0  0  0  0  0  0  0
  -20.2623    3.4499   36.1690 O   0  0  0  0  0  0  0  0  0  0  0  0
  -19.7741    3.7099   37.4314 C   0  0  0  0  0  0  0  0  0  0  0  0
  -18.6108    1.6210   40.4838 S   0  0  0  0  0  0  0  0  0  0  0  0
  1  2  2  0
  2  3  1  0
  3  6  2  0
  4  7  2  0
  5  8  2  0
  7  8  1  0
  1  9  1  0
  5 10  1  0
  6 10  1  0
  4 10  1  0
 11 12  1  0
 12 13  1  0
  6 13  1  0
  9 13  2  0
  4 14  1  0
  3 14  1  0
M  END
$$$$
