7C3U_AZG_B_202
     RDKit          3D

 15 16  0  0  0  0  0  0  0  0999 V2000
    0.3417    0.2834   -1.2880 C   0  0  0  0  0  0  0  0  0  0  0  0
   -0.8676   -0.0959   -0.8129 N   0  0  0  0  0  0  0  0  0  0  0  0
   -0.9782   -0.3413    0.5307 C   0  0  0  0  0  0  0  0  0  0  0  0
   -2.2320   -0.7432    1.0770 N   0  0  0  0  0  0  0  0  0  0  0  0
    0.1137   -0.2019    1.3550 N   0  0  0  0  0  0  0  0  0  0  0  0
    1.3322    0.1815    0.8691 C   0  0  0  0  0  0  0  0  0  0  0  0
    2.4222    0.3153    1.7250 O   0  0  0  0  0  0  0  0  0  0  0  0
    1.4221    0.4250   -0.4954 C   0  0  0  0  0  0  0  0  0  0  0  0
    2.4460    0.8063   -1.2687 N   0  0  0  0  0  0  0  0  0  0  0  0
    1.9692    0.8882   -2.5095 N   0  0  0  0  0  0  0  0  0  0  0  0
    0.6737    0.5719   -2.5563 N   0  0  0  0  0  0  0  0  0  0  0  0
   -3.0671   -0.8520    0.4598 H   0  0  0  0  0  0  0  0  0  0  0  0
   -2.3265   -0.9325    2.0995 H   0  0  0  0  0  0  0  0  0  0  0  0
    3.3337    0.5980    1.3862 H   0  0  0  0  0  0  0  0  0  0  0  0
    3.4307    1.0068   -0.9870 H   0  0  0  0  0  0  0  0  0  0  0  0
  1  2  2  0
  2  3  1  0
  3  4  1  0
  3  5  2  0
  5  6  1  0
  6  7  1  0
  1  8  1  0
  6  8  2  0
  8  9  1  0
  9 10  1  0
  1 11  1  0
 10 11  2  0
  4 12  1  0
  4 13  1  0
  7 14  1  0
  9 15  1  0
M  END
