7C3U_AZG_B_202
     RDKit          3D

 11 12  0  0  0  0  0  0  0  0999 V2000
   31.8400   38.0850   26.9290 C   0  0  0  0  0  0  0  0  0  0  0  0
   32.6740   36.9800   27.0330 N   0  0  0  0  0  0  0  0  0  0  0  0
   33.9420   37.1750   27.3040 C   0  0  0  0  0  0  0  0  0  0  0  0
   34.7370   36.0850   27.4450 N   0  0  0  0  0  0  0  0  0  0  0  0
   34.4900   38.4080   27.4970 N   0  0  0  0  0  0  0  0  0  0  0  0
   33.7710   39.5160   27.3770 C   0  0  0  0  0  0  0  0  0  0  0  0
   34.3640   40.6940   27.5410 O   0  0  0  0  0  0  0  0  0  0  0  0
   32.3630   39.4280   27.0690 C   0  0  0  0  0  0  0  0  0  0  0  0
   31.3500   40.2360   26.9230 N   0  0  0  0  0  0  0  0  0  0  0  0
   30.2030   39.5570   26.6200 N   0  0  0  0  0  0  0  0  0  0  0  0
   30.5450   38.1760   26.6280 N   0  0  0  0  0  0  0  0  0  0  0  0
  1  2  2  0
  2  3  1  0
  3  4  1  0
  3  5  2  0
  5  6  1  0
  6  7  1  0
  1  8  1  0
  6  8  2  0
  8  9  1  0
  9 10  1  0
  1 11  1  0
 10 11  2  0
M  END
$$$$
7C3U_AZG_A_202
     RDKit          3D

 11 12  0  0  0  0  0  0  0  0999 V2000
   24.2270   33.8930   46.3100 C   0  0  0  0  0  0  0  0  0  0  0  0
   24.8440   32.6850   46.1990 N   0  0  0  0  0  0  0  0  0  0  0  0
   24.0850   31.5720   45.8710 C   0  0  0  0  0  0  0  0  0  0  0  0
   24.6190   30.3550   45.7410 N   0  0  0  0  0  0  0  0  0  0  0  0
   22.7770   31.5940   45.6740 N   0  0  0  0  0  0  0  0  0  0  0  0
   22.1320   32.7930   45.8100 C   0  0  0  0  0  0  0  0  0  0  0  0
   20.8540   32.9210   45.6540 O   0  0  0  0  0  0  0  0  0  0  0  0
   22.8440   34.0440   46.0710 C   0  0  0  0  0  0  0  0  0  0  0  0
   22.5160   35.3500   46.1990 N   0  0  0  0  0  0  0  0  0  0  0  0
   23.6380   36.0720   46.5240 N   0  0  0  0  0  0  0  0  0  0  0  0
   24.6940   35.1200   46.5410 N   0  0  0  0  0  0  0  0  0  0  0  0
  1  2  2  0
  2  3  1  0
  3  4  1  0
  3  5  2  0
  5  6  1  0
  6  7  1  0
  1  8  1  0
  6  8  2  0
  8  9  1  0
  9 10  1  0
  1 11  1  0
 10 11  2  0
M  END
$$$$
