7ZZW_KKW_B_610
     RDKit          3D

 52 56  0  0  0  0  0  0  0  0999 V2000
   17.1957  -20.3252    7.4617 C   0  0  0  0  0  0  0  0  0  0  0  0
   16.3965  -20.1641    6.3153 C   0  0  0  0  0  0  0  0  0  0  0  0
   22.1788  -18.1474    0.1846 C   0  0  0  0  0  0  0  0  0  0  0  0
   17.0595  -20.0609    5.0578 C   0  0  0  0  0  0  0  0  0  0  0  0
   14.9822  -20.0723    6.0986 C   0  0  0  0  0  0  0  0  0  0  0  0
   14.6499  -19.9153    4.7913 C   0  0  0  0  0  0  0  0  0  0  0  0
   21.1360  -18.6108   -0.8607 C   0  0  2  0  0  0  0  0  0  0  0  0
   24.7374  -18.3733    0.2346 C   0  0  0  0  0  0  0  0  0  0  0  0
   27.1147  -18.2907    0.5241 C   0  0  0  0  0  0  0  0  0  0  0  0
   26.9954  -18.6687    1.8428 C   0  0  0  0  0  0  0  0  0  0  0  0
   23.4861  -18.2215   -0.6092 C   0  0  1  0  0  0  0  0  0  0  0  0
   25.7458  -18.9010    2.3628 C   0  0  0  0  0  0  0  0  0  0  0  0
   24.6297  -18.7549    1.5653 C   0  0  0  0  0  0  0  0  0  0  0  0
   20.2815  -18.6039    2.0679 C   0  0  0  0  0  0  0  0  0  0  0  0
   19.2246  -18.7004    3.1727 C   0  0  0  0  0  0  0  0  0  0  0  0
   19.0654  -21.1100    2.8174 C   0  0  0  0  0  0  0  0  0  0  0  0
   20.1843  -21.0364    1.7888 C   0  0  0  0  0  0  0  0  0  0  0  0
   18.4745  -20.1198    4.9918 C   0  0  0  0  0  0  0  0  0  0  0  0
   18.5671  -20.3752    7.3069 C   0  0  0  0  0  0  0  0  0  0  0  0
   23.2359  -19.4138   -1.5487 C   0  0  0  0  0  0  0  0  0  0  0  0
   20.1788  -19.5975   -0.2072 C   0  0  0  0  0  0  0  0  0  0  0  0
   26.0060  -18.1397   -0.2868 C   0  0  0  0  0  0  0  0  0  0  0  0
   21.8402  -19.2425   -2.0045 N   0  0  0  0  0  0  0  0  0  0  0  0
   20.1732  -19.7287    1.1371 N   0  0  0  0  0  0  0  0  0  0  0  0
   19.2036  -20.0298    3.7975 N   0  0  0  0  0  0  0  0  0  0  0  0
   19.1971  -20.2781    6.1208 N   0  0  0  0  0  0  0  0  0  0  0  0
   19.4277  -20.2577   -0.9133 O   0  0  0  0  0  0  0  0  0  0  0  0
   15.9978  -19.8645    3.7231 S   0  0  0  0  0  0  0  0  0  0  0  0
   28.6984  -17.9974   -0.1355 Cl  0  0  0  0  0  0  0  0  0  0  0  0
   16.7670  -20.4042    8.3971 H   0  0  0  0  0  0  0  0  0  0  0  0
   22.1999  -18.8039    1.0292 H   0  0  0  0  0  0  0  0  0  0  0  0
   21.9777  -17.1786    0.5921 H   0  0  0  0  0  0  0  0  0  0  0  0
   14.2867  -20.1206    6.8596 H   0  0  0  0  0  0  0  0  0  0  0  0
   13.6737  -19.8335    4.4667 H   0  0  0  0  0  0  0  0  0  0  0  0
   20.5749  -17.7744   -1.2217 H   0  0  0  0  0  0  0  0  0  0  0  0
   27.8349  -18.7762    2.4332 H   0  0  0  0  0  0  0  0  0  0  0  0
   23.6981  -17.3069   -1.1225 H   0  0  0  0  0  0  0  0  0  0  0  0
   25.6418  -19.1846    3.3496 H   0  0  0  0  0  0  0  0  0  0  0  0
   23.6955  -18.9328    1.9660 H   0  0  0  0  0  0  0  0  0  0  0  0
   21.2545  -18.6108    2.5130 H   0  0  0  0  0  0  0  0  0  0  0  0
   20.1238  -17.6959    1.5242 H   0  0  0  0  0  0  0  0  0  0  0  0
   18.2623  -18.5023    2.7490 H   0  0  0  0  0  0  0  0  0  0  0  0
   19.4690  -17.9832    3.9283 H   0  0  0  0  0  0  0  0  0  0  0  0
   19.1113  -22.0525    3.3221 H   0  0  0  0  0  0  0  0  0  0  0  0
   18.1252  -21.0076    2.3170 H   0  0  0  0  0  0  0  0  0  0  0  0
   20.0417  -21.8006    1.0536 H   0  0  0  0  0  0  0  0  0  0  0  0
   21.1247  -21.1785    2.2792 H   0  0  0  0  0  0  0  0  0  0  0  0
   19.1454  -20.4944    8.1534 H   0  0  0  0  0  0  0  0  0  0  0  0
   23.3509  -20.3390   -1.0237 H   0  0  0  0  0  0  0  0  0  0  0  0
   23.9286  -19.4408   -2.3637 H   0  0  0  0  0  0  0  0  0  0  0  0
   26.1182  -17.8556   -1.2726 H   0  0  0  0  0  0  0  0  0  0  0  0
   21.4227  -20.1460   -2.2276 H   0  0  0  0  0  0  0  0  0  0  0  0
  1  2  4  0
  2  4  4  0
  2  5  4  0
  5  6  4  0
  3  7  1  0
  9 10  4  0
 11  8  1  0
  3 11  1  0
 10 12  4  0
 12 13  4  0
  8 13  4  0
 14 15  1  0
 16 17  1  0
  4 18  4  0
  1 19  4  0
 11 20  1  0
  7 21  1  0
  9 22  4  0
  8 22  4  0
 20 23  1  0
  7 23  1  0
 17 24  1  0
 14 24  1  0
 21 24  1  0
 16 25  1  0
 15 25  1  0
 18 25  1  0
 18 26  4  0
 19 26  4  0
 21 27  2  0
  6 28  4  0
  4 28  4  0
  9 29  1  0
  1 30  1  0
  3 31  1  0
  3 32  1  0
  5 33  1  0
  6 34  1  0
  7 35  1  6
 10 36  1  0
 11 37  1  6
 12 38  1  0
 13 39  1  0
 14 40  1  0
 14 41  1  0
 15 42  1  0
 15 43  1  0
 16 44  1  0
 16 45  1  0
 17 46  1  0
 17 47  1  0
 19 48  1  0
 20 49  1  0
 20 50  1  0
 22 51  1  0
 23 52  1  0
M  END
