7NPL_UKZ_A_401
     RDKit          3D

 27 29  0  0  0  0  0  0  0  0999 V2000
  -20.3147    0.9701   40.4194 C   0  0  0  0  0  0  0  0  0  0  0  0
  -19.3344    1.8028   39.9905 C   0  0  0  0  0  0  0  0  0  0  0  0
  -16.7501    3.0039   35.3047 C   0  0  0  0  0  0  0  0  0  0  0  0
  -15.9399    0.8952   36.1880 C   0  0  0  0  0  0  0  0  0  0  0  0
  -16.8342    2.3953   34.0580 C   0  0  0  0  0  0  0  0  0  0  0  0
  -17.3014    3.0846   32.8331 C   0  0  0  0  0  0  0  0  0  0  0  0
  -18.2524    8.3474   38.2881 C   0  0  0  0  0  0  0  0  0  0  0  0
  -18.1053    6.8153   38.3359 C   0  0  0  0  0  0  0  0  0  0  0  0
  -17.7073    6.3576   36.9761 C   0  0  0  0  0  0  0  0  0  0  0  0
  -17.3915    4.9055   36.8156 C   0  0  1  0  0  0  0  0  0  0  0  0
  -18.5958    4.1690   37.2630 N   0  0  0  0  0  0  0  0  0  0  0  0
  -18.4241    3.4406   38.4717 C   0  0  0  0  0  0  0  0  0  0  0  0
  -17.3883    3.5036   39.1832 O   0  0  0  0  0  0  0  0  0  0  0  0
  -19.5499    2.5779   38.8708 C   0  0  0  0  0  0  0  0  0  0  0  0
  -20.7254    2.5531   38.1526 C   0  0  0  0  0  0  0  0  0  0  0  0
  -21.7133    1.6970   38.6088 C   0  0  0  0  0  0  0  0  0  0  0  0
  -21.5051    0.9308   39.7117 C   0  0  0  0  0  0  0  0  0  0  0  0
  -19.8514    0.2848   41.5767 N   0  0  0  0  0  0  0  0  0  0  0  0
  -18.5380    0.6782   41.9138 C   0  0  0  0  0  0  0  0  0  0  0  0
  -17.8810    0.2405   42.8706 O   0  0  0  0  0  0  0  0  0  0  0  0
  -18.1410    1.6960   40.9007 C   0  0  0  0  0  0  0  0  0  0  0  0
  -17.1117    4.4141   35.4413 C   0  0  1  0  0  0  0  0  0  0  0  0
  -16.2033    5.2408   34.8017 O   0  0  0  0  0  0  0  0  0  0  0  0
  -16.2936    2.2239   36.3713 C   0  0  0  0  0  0  0  0  0  0  0  0
  -16.0231    0.2889   34.9530 C   0  0  0  0  0  0  0  0  0  0  0  0
  -16.4707    1.0472   33.8940 C   0  0  0  0  0  0  0  0  0  0  0  0
  -16.5804    0.2900   32.2964 Cl  0  0  0  0  0  0  0  0  0  0  0  0
  1  2  2  0
  3  5  2  0
  6  5  1  1
  8  7  1  6
  9  8  1  6
 10  9  1  0
 10 11  1  6
 11 12  1  0
 12 13  2  0
  2 14  1  0
 12 14  1  0
 14 15  2  0
 15 16  1  0
 16 17  2  0
  1 17  1  0
  1 18  1  0
 18 19  1  0
 19 20  2  0
 21 19  1  6
  2 21  1  0
 10 22  1  0
  3 22  1  0
 22 23  1  1
  3 24  1  0
  4 24  2  0
  4 25  1  0
  5 26  1  0
 25 26  2  0
 26 27  1  0
M  END
$$$$
