
     RDKit          3D

 14 13  0  0  0  0  0  0  0  0999 V2000
    4.5949   12.8056   13.1199 C   0  0  0  0  0  0  0  0  0  0  0  0
    3.7626   13.0104   14.2522 O   0  0  0  0  0  0  0  0  0  0  0  0
    4.5793   11.3290   12.7168 C   0  0  0  0  0  0  0  0  0  0  0  0
    3.2759   10.5622   12.8691 C   0  0  0  0  0  0  0  0  0  0  0  0
    2.8877    9.8963   13.9696 C   0  0  0  0  0  0  0  0  0  0  0  0
    2.3927   10.5946   11.6483 C   0  0  0  0  0  0  0  0  0  0  0  0
    4.5066   13.3050   15.6443 P   0  0  1  0  0  5  0  0  0  0  0  0
    4.0602   14.5443   16.3391 O   0  0  0  0  0  0  0  0  0  0  0  0
    4.1727   11.9708   16.4672 O   0  0  0  0  0  0  0  0  0  0  0  0
    6.0468   13.1548   15.3049 O   0  0  0  0  0  0  0  0  0  0  0  0
    7.0922   14.3331   15.3869 P   0  0  0  0  0  5  0  0  0  0  0  0
    8.5113   13.5907   15.4019 O   0  0  0  0  0  0  0  0  0  0  0  0
    7.0790   15.3521   14.3023 O   0  0  0  0  0  0  0  0  0  0  0  0
    7.0660   14.8974   16.8754 O   0  0  0  0  0  0  0  0  0  0  0  0
  1  2  1  0
  1  3  1  0
  3  4  1  0
  4  5  2  0
  4  6  1  0
  7  2  1  0
  7  8  2  0
  7  9  1  1
  7 10  1  0
 10 11  1  0
 11 12  1  0
 11 13  2  0
 11 14  1  0
M  END
