7LMO_NYO_B_501
     RDKit          3D

 37 41  0  0  0  0  0  0  0  0999 V2000
   -1.1623  -21.8596   39.7895 C   0  0  0  0  0  0  0  0  0  0  0  0
   -2.4361  -21.6600   40.2697 C   0  0  0  0  0  0  0  0  0  0  0  0
   -2.7185  -21.2218   41.5596 C   0  0  0  0  0  0  0  0  0  0  0  0
    0.0021  -19.0384   48.0129 N   0  0  0  0  0  0  0  0  0  0  0  0
    3.3891  -22.9538   50.8014 N   0  0  0  0  0  0  0  0  0  0  0  0
   -1.3173  -21.7810   37.2293 C   0  0  0  0  0  0  0  0  0  0  0  0
    1.3369  -20.2676   44.8087 O   0  0  0  0  0  0  0  0  0  0  0  0
    0.3366  -20.4817   44.0720 C   0  0  0  0  0  0  0  0  0  0  0  0
    0.5643  -20.8966   42.8499 O   0  0  0  0  0  0  0  0  0  0  0  0
   -0.4196  -21.1486   42.0011 C   0  0  0  0  0  0  0  0  0  0  0  0
   -0.1416  -21.5836   40.7176 C   0  0  0  0  0  0  0  0  0  0  0  0
   -0.8181  -22.2191   38.4854 N   0  0  0  0  0  0  0  0  0  0  0  0
   -2.5954  -21.0509   37.1368 C   0  0  0  0  0  0  0  0  0  0  0  0
    0.2072  -23.3001   38.3495 C   0  0  0  0  0  0  0  0  0  0  0  0
    1.5620  -22.8345   38.7866 C   0  0  0  0  0  0  0  0  0  0  0  0
   -0.9386  -20.2774   44.5635 C   0  0  0  0  0  0  0  0  0  0  0  0
   -2.0008  -20.5246   43.7223 C   0  0  0  0  0  0  0  0  0  0  0  0
   -3.4042  -20.3578   44.0981 C   0  0  0  0  0  0  0  0  0  0  0  0
   -1.7054  -20.9580   42.4508 C   0  0  0  0  0  0  0  0  0  0  0  0
   -1.1432  -19.7990   45.9517 C   0  0  0  0  0  0  0  0  0  0  0  0
    0.1492  -19.5627   46.6940 C   0  0  0  0  0  0  0  0  0  0  0  0
    0.9401  -18.2114   48.7378 C   0  0  0  0  0  0  0  0  0  0  0  0
    2.0645  -17.7954   48.3386 O   0  0  0  0  0  0  0  0  0  0  0  0
    0.3700  -17.9274   50.0358 N   0  0  0  0  0  0  0  0  0  0  0  0
   -0.5059  -19.0692   50.2799 C   0  0  2  0  0  0  0  0  0  0  0  0
   -1.1068  -19.2182   48.9192 C   0  0  0  0  0  0  0  0  0  0  0  0
   -2.2844  -19.4455   48.5911 O   0  0  0  0  0  0  0  0  0  0  0  0
   -1.5100  -18.8748   51.3419 C   0  0  0  0  0  0  0  0  0  0  0  0
   -0.9662  -19.6215   52.5302 C   0  0  0  0  0  0  0  0  0  0  0  0
    0.1039  -20.4679   52.0585 N   0  0  0  0  0  0  0  0  0  0  0  0
    0.3160  -20.2542   50.6467 C   0  0  0  0  0  0  0  0  0  0  0  0
    0.8625  -21.3876   52.8304 C   0  0  0  0  0  0  0  0  0  0  0  0
    0.6138  -21.5781   54.0564 O   0  0  0  0  0  0  0  0  0  0  0  0
    1.9700  -22.1695   52.2769 C   0  0  0  0  0  0  0  0  0  0  0  0
    2.7824  -23.0400   52.9092 N   0  0  0  0  0  0  0  0  0  0  0  0
    3.6478  -23.5139   51.9939 C   0  0  0  0  0  0  0  0  0  0  0  0
    2.3368  -22.1029   50.9543 C   0  0  0  0  0  0  0  0  0  0  0  0
  1  2  2  0
  2  3  1  0
  7  8  2  0
  8  9  1  0
  9 10  1  0
  1 11  1  0
 10 11  2  0
  6 12  1  0
  1 12  1  0
  6 13  1  0
 12 14  1  0
 14 15  1  0
  8 16  1  0
 16 17  2  0
 17 18  1  0
  3 19  2  0
 17 19  1  0
 10 19  1  0
 16 20  1  0
 20 21  1  0
  4 21  1  0
  4 22  1  0
 22 23  2  0
 22 24  1  0
 24 25  1  0
  4 26  1  0
 25 26  1  0
 26 27  2  0
 25 28  1  1
 28 29  1  0
 29 30  1  0
 25 31  1  0
 30 31  1  0
 30 32  1  0
 32 33  2  0
 32 34  1  0
 34 35  1  0
 35 36  2  0
  5 36  1  0
 34 37  2  0
  5 37  1  0
M  END
$$$$
