8CNH_V6U_A_501
     RDKit          3D

 25 27  0  0  0  0  0  0  0  0999 V2000
  -31.4094   -2.5958   -5.2067 C   0  0  0  0  0  0  0  0  0  0  0  0
  -31.6590   -1.8422   -4.1110 C   0  0  0  0  0  0  0  0  0  0  0  0
  -31.0312   -0.5744   -4.0498 C   0  0  0  0  0  0  0  0  0  0  0  0
  -30.2053   -0.1018   -5.0268 C   0  0  0  0  0  0  0  0  0  0  0  0
  -29.9546   -0.8752   -6.1329 C   0  0  0  0  0  0  0  0  0  0  0  0
  -30.5600   -2.1081   -6.2068 C   0  0  0  0  0  0  0  0  0  0  0  0
  -37.0410   -0.5279   -2.3441 C   0  0  0  0  0  0  0  0  0  0  0  0
  -30.2780    1.2360   -0.3672 C   0  0  0  0  0  0  0  0  0  0  0  0
  -31.1430    0.4320   -1.0724 C   0  0  0  0  0  0  0  0  0  0  0  0
  -32.4906    0.6110   -1.0083 C   0  0  0  0  0  0  0  0  0  0  0  0
  -32.1145    2.4305    0.4913 C   0  0  0  0  0  0  0  0  0  0  0  0
  -33.5084   -0.1637   -1.6842 C   0  0  0  0  0  0  0  0  0  0  0  0
  -33.4543   -1.2816   -2.4458 C   0  0  0  0  0  0  0  0  0  0  0  0
  -34.8129   -1.5252   -2.7680 C   0  0  0  0  0  0  0  0  0  0  0  0
  -32.4210   -2.2012   -2.9259 C   0  0  0  0  0  0  0  0  0  0  0  0
  -32.0536   -3.8632   -5.4632 C   0  0  0  0  0  0  0  0  0  0  0  0
  -32.6360   -5.8685   -6.7534 C   0  0  0  0  0  0  0  0  0  0  0  0
  -30.7598    2.2412    0.4201 N   0  0  0  0  0  0  0  0  0  0  0  0
  -32.9355    1.6235   -0.2136 N   0  0  0  0  0  0  0  0  0  0  0  0
  -35.5817   -0.5913   -2.2105 N   0  0  0  0  0  0  0  0  0  0  0  0
  -34.8272    0.2355   -1.5557 N   0  0  0  0  0  0  0  0  0  0  0  0
  -32.6036    3.4847    1.3153 N   0  0  0  0  0  0  0  0  0  0  0  0
  -32.0291   -4.5880   -6.6371 O   0  0  0  0  0  0  0  0  0  0  0  0
  -32.7254   -4.4030   -4.5182 O   0  0  0  0  0  0  0  0  0  0  0  0
  -28.5694    0.9162   -0.5215 Cl  0  0  0  0  0  0  0  0  0  0  0  0
  1  2  2  0
  2  3  1  0
  3  4  2  0
  4  5  1  0
  1  6  1  0
  5  6  2  0
  8  9  2  0
  9 10  1  0
 10 12  1  0
 12 13  1  0
 13 14  2  0
 15 13  1  1
  2 15  1  0
  1 16  1  0
 11 18  2  0
  8 18  1  0
 11 19  1  0
 10 19  2  0
 14 20  1  0
  7 20  1  1
 12 21  2  0
 20 21  1  0
 11 22  1  0
 17 23  1  1
 16 23  1  0
 16 24  2  0
  8 25  1  0
M  END
$$$$
