7PUV_84Z_A_304
     RDKit          3D

 24 25  0  0  0  0  0  0  0  0999 V2000
   27.5690    7.3830   12.7280 O   0  0  0  0  0  0  0  0  0  0  0  0
   27.6680    7.2850   11.2560 S   0  0  0  0  0  0  0  0  0  0  0  0
   28.9420    6.8120   10.7080 O   0  0  0  0  0  0  0  0  0  0  0  0
   27.3980    8.9000   10.7260 C   0  0  0  0  0  0  0  0  0  0  0  0
   27.0320    9.9620   11.5500 C   0  0  0  0  0  0  0  0  0  0  0  0
   26.7630   11.2670   11.0550 C   0  0  0  0  0  0  0  0  0  0  0  0
   26.8870   11.4440    9.6840 C   0  0  0  0  0  0  0  0  0  0  0  0
   27.3050   10.4090    8.8980 C   0  0  0  0  0  0  0  0  0  0  0  0
   27.5060    9.0850    9.3730 C   0  0  0  0  0  0  0  0  0  0  0  0
   26.4040    6.1080   10.7820 C   0  0  0  0  0  0  0  0  0  0  0  0
   26.6610    5.4070    9.6120 C   0  0  0  0  0  0  0  0  0  0  0  0
   25.2650    5.9280   11.5880 C   0  0  0  0  0  0  0  0  0  0  0  0
   24.7670    6.7380   12.7470 C   0  0  0  0  0  0  0  0  0  0  0  0
   24.7540    8.0450   12.4180 O   0  0  0  0  0  0  0  0  0  0  0  0
   24.2690    9.0450   13.2350 C   0  0  0  0  0  0  0  0  0  0  0  0
   24.2410    6.4090   13.7260 O   0  0  0  0  0  0  0  0  0  0  0  0
   24.4710    4.8140   11.2500 C   0  0  0  0  0  0  0  0  0  0  0  0
   24.5750    4.0650   10.0440 C   0  0  0  0  0  0  0  0  0  0  0  0
   25.7180    4.3960    9.2880 C   0  0  0  0  0  0  0  0  0  0  0  0
   26.0810    3.5680    7.8060 Cl  0  0  0  0  0  0  0  0  0  0  0  0
   23.6890    2.5780    9.8250 S   0  0  0  0  0  0  0  0  0  0  0  0
   24.6020    1.3550    9.6390 O   0  0  0  0  0  0  0  0  0  0  0  0
   22.8460    2.5630    8.5390 O   0  0  0  0  0  0  0  0  0  0  0  0
   22.5680    2.1150   11.1080 N   0  0  0  0  0  0  0  0  0  0  0  0
  1  2  2  0
  2  3  2  0
  2  4  1  0
  4  5  2  0
  5  6  1  0
  6  7  2  0
  7  8  1  0
  8  9  2  0
  4  9  1  0
  2 10  1  0
 10 11  2  0
 10 12  1  0
 12 13  1  0
 13 14  1  0
 14 15  1  0
 13 16  2  0
 12 17  2  0
 17 18  1  0
 11 19  1  0
 18 19  2  0
 19 20  1  0
 18 21  1  0
 21 22  2  0
 21 23  2  0
 21 24  1  0
M  END
$$$$
7PUV_84Z_B_304
     RDKit          3D

 24 25  0  0  0  0  0  0  0  0999 V2000
  -11.5490   11.0170    4.3310 O   0  0  0  0  0  0  0  0  0  0  0  0
  -11.5070   10.9330    5.8100 S   0  0  0  0  0  0  0  0  0  0  0  0
  -12.7870   10.6720    6.4840 O   0  0  0  0  0  0  0  0  0  0  0  0
  -10.9450   12.4630    6.3090 C   0  0  0  0  0  0  0  0  0  0  0  0
  -10.4230   13.3580    5.5040 C   0  0  0  0  0  0  0  0  0  0  0  0
   -9.8530   14.5590    5.9750 C   0  0  0  0  0  0  0  0  0  0  0  0
   -9.8290   14.8360    7.3280 C   0  0  0  0  0  0  0  0  0  0  0  0
  -10.3390   13.9660    8.2620 C   0  0  0  0  0  0  0  0  0  0  0  0
  -10.8540   12.7270    7.7220 C   0  0  0  0  0  0  0  0  0  0  0  0
  -10.4800    9.5500    6.2450 C   0  0  0  0  0  0  0  0  0  0  0  0
  -10.8700    8.9120    7.4150 C   0  0  0  0  0  0  0  0  0  0  0  0
   -9.4340    9.0900    5.4180 C   0  0  0  0  0  0  0  0  0  0  0  0
   -8.9050    9.8420    4.2790 C   0  0  0  0  0  0  0  0  0  0  0  0
   -8.6160   11.1640    4.7000 O   0  0  0  0  0  0  0  0  0  0  0  0
   -7.9920   12.0700    3.8740 C   0  0  0  0  0  0  0  0  0  0  0  0
   -8.5610    9.5340    3.2180 O   0  0  0  0  0  0  0  0  0  0  0  0
   -8.8720    7.8560    5.7450 C   0  0  0  0  0  0  0  0  0  0  0  0
   -9.0830    7.2010    6.9210 C   0  0  0  0  0  0  0  0  0  0  0  0
  -10.1620    7.6990    7.7050 C   0  0  0  0  0  0  0  0  0  0  0  0
  -10.5630    6.9800    9.2350 Cl  0  0  0  0  0  0  0  0  0  0  0  0
   -8.4520    5.5910    7.1510 S   0  0  0  0  0  0  0  0  0  0  0  0
   -9.5990    4.6920    7.2500 O   0  0  0  0  0  0  0  0  0  0  0  0
   -7.6600    5.7040    8.3690 O   0  0  0  0  0  0  0  0  0  0  0  0
   -7.7510    5.3620    5.3360 N   0  0  0  0  0  0  0  0  0  0  0  0
  1  2  2  0
  2  3  2  0
  2  4  1  0
  4  5  2  0
  5  6  1  0
  6  7  2  0
  7  8  1  0
  8  9  2  0
  4  9  1  0
  2 10  1  0
 10 11  2  0
 10 12  1  0
 12 13  1  0
 13 14  1  0
 14 15  1  0
 13 16  2  0
 12 17  2  0
 17 18  1  0
 11 19  1  0
 18 19  2  0
 19 20  1  0
 18 21  1  0
 21 22  2  0
 21 23  2  0
 21 24  1  0
M  END
$$$$
7PUV_84Z_D_303
     RDKit          3D

 24 25  0  0  0  0  0  0  0  0999 V2000
    3.6390   12.5630  -39.3400 O   0  0  0  0  0  0  0  0  0  0  0  0
    3.7930   12.6720  -37.8560 S   0  0  0  0  0  0  0  0  0  0  0  0
    2.5180   12.5470  -37.1680 O   0  0  0  0  0  0  0  0  0  0  0  0
    4.5140   14.1730  -37.3990 C   0  0  0  0  0  0  0  0  0  0  0  0
    4.9350   14.9800  -38.4700 C   0  0  0  0  0  0  0  0  0  0  0  0
    5.5100   16.2620  -38.2190 C   0  0  0  0  0  0  0  0  0  0  0  0
    5.6290   16.6730  -36.8670 C   0  0  0  0  0  0  0  0  0  0  0  0
    5.1820   15.8790  -35.7800 C   0  0  0  0  0  0  0  0  0  0  0  0
    4.6630   14.6170  -36.0660 C   0  0  0  0  0  0  0  0  0  0  0  0
    4.7620   11.3300  -37.3620 C   0  0  0  0  0  0  0  0  0  0  0  0
    4.4140   10.7570  -36.1160 C   0  0  0  0  0  0  0  0  0  0  0  0
    5.7720   10.7930  -38.2190 C   0  0  0  0  0  0  0  0  0  0  0  0
    6.3450   11.4090  -39.3910 C   0  0  0  0  0  0  0  0  0  0  0  0
    6.6880   12.7240  -39.1570 O   0  0  0  0  0  0  0  0  0  0  0  0
    7.3110   13.4940  -40.0860 C   0  0  0  0  0  0  0  0  0  0  0  0
    6.6810   10.8030  -40.3690 O   0  0  0  0  0  0  0  0  0  0  0  0
    6.3620    9.5340  -37.8430 C   0  0  0  0  0  0  0  0  0  0  0  0
    6.0390    8.9900  -36.5780 C   0  0  0  0  0  0  0  0  0  0  0  0
    5.0390    9.5810  -35.7720 C   0  0  0  0  0  0  0  0  0  0  0  0
    4.7320    8.9510  -34.2080 Cl  0  0  0  0  0  0  0  0  0  0  0  0
    6.7500    7.3540  -36.1950 S   0  0  0  0  0  0  0  0  0  0  0  0
    5.5810    6.4320  -36.1130 O   0  0  0  0  0  0  0  0  0  0  0  0
    7.5770    7.5450  -35.0220 O   0  0  0  0  0  0  0  0  0  0  0  0
    7.6560    6.9240  -37.4700 N   0  0  0  0  0  0  0  0  0  0  0  0
  1  2  2  0
  2  3  2  0
  2  4  1  0
  4  5  2  0
  5  6  1  0
  6  7  2  0
  7  8  1  0
  8  9  2  0
  4  9  1  0
  2 10  1  0
 10 11  2  0
 10 12  1  0
 12 13  1  0
 13 14  1  0
 14 15  1  0
 13 16  2  0
 12 17  2  0
 17 18  1  0
 11 19  1  0
 18 19  2  0
 19 20  1  0
 18 21  1  0
 21 22  2  0
 21 23  2  0
 21 24  1  0
M  END
$$$$
7PUV_84Z_C_305
     RDKit          3D

 24 25  0  0  0  0  0  0  0  0999 V2000
   42.6310    8.6360  -30.6820 O   0  0  0  0  0  0  0  0  0  0  0  0
   42.6760    8.5030  -32.1540 S   0  0  0  0  0  0  0  0  0  0  0  0
   43.9610    7.8320  -32.5810 O   0  0  0  0  0  0  0  0  0  0  0  0
   42.3840   10.1510  -32.8640 C   0  0  0  0  0  0  0  0  0  0  0  0
   41.9360   11.1270  -31.9610 C   0  0  0  0  0  0  0  0  0  0  0  0
   41.6950   12.4730  -32.3480 C   0  0  0  0  0  0  0  0  0  0  0  0
   41.8080   12.7400  -33.7200 C   0  0  0  0  0  0  0  0  0  0  0  0
   42.2700   11.7690  -34.5960 C   0  0  0  0  0  0  0  0  0  0  0  0
   42.4580   10.4040  -34.2010 C   0  0  0  0  0  0  0  0  0  0  0  0
   41.4800    7.3580  -32.6530 C   0  0  0  0  0  0  0  0  0  0  0  0
   41.7110    6.6410  -33.8510 C   0  0  0  0  0  0  0  0  0  0  0  0
   40.3080    7.0730  -31.8620 C   0  0  0  0  0  0  0  0  0  0  0  0
   39.7960    7.8820  -30.7300 C   0  0  0  0  0  0  0  0  0  0  0  0
   39.8080    9.2670  -31.0110 O   0  0  0  0  0  0  0  0  0  0  0  0
   39.1850   10.2280  -30.1800 C   0  0  0  0  0  0  0  0  0  0  0  0
   39.2020    7.4780  -29.7750 O   0  0  0  0  0  0  0  0  0  0  0  0
   39.4480    6.0150  -32.1930 C   0  0  0  0  0  0  0  0  0  0  0  0
   39.6830    5.3220  -33.3580 C   0  0  0  0  0  0  0  0  0  0  0  0
   40.8380    5.5890  -34.1500 C   0  0  0  0  0  0  0  0  0  0  0  0
   41.0910    4.8600  -35.6820 Cl  0  0  0  0  0  0  0  0  0  0  0  0
   38.7070    3.9090  -33.7090 S   0  0  0  0  0  0  0  0  0  0  0  0
   37.9760    4.1750  -34.9260 O   0  0  0  0  0  0  0  0  0  0  0  0
   39.4760    2.7630  -33.6210 O   0  0  0  0  0  0  0  0  0  0  0  0
   37.5620    3.8040  -32.4740 N   0  0  0  0  0  0  0  0  0  0  0  0
  1  2  2  0
  2  3  2  0
  2  4  1  0
  4  5  2  0
  5  6  1  0
  6  7  2  0
  7  8  1  0
  8  9  2  0
  4  9  1  0
  2 10  1  0
 10 11  2  0
 10 12  1  0
 12 13  1  0
 13 14  1  0
 14 15  1  0
 13 16  2  0
 12 17  2  0
 17 18  1  0
 11 19  1  0
 18 19  2  0
 19 20  1  0
 18 21  1  0
 21 22  2  0
 21 23  2  0
 21 24  1  0
M  END
$$$$
