1G9V_RQ3_A_801
     RDKit          3D

 25 26  0  0  0  0  0  0  0  0999 V2000
   18.3938   18.0212   16.8474 C   0  0  0  0  0  0  0  0  0  0  0  0
   18.5104   19.2595   16.1851 O   0  0  0  0  0  0  0  0  0  0  0  0
   18.0345   17.0592   16.1439 O   0  0  0  0  0  0  0  0  0  0  0  0
   18.7073   18.0108   18.2781 C   0  0  2  0  0  0  0  0  0  0  0  0
   17.7030   18.9281   19.0051 C   0  0  0  0  0  0  0  0  0  0  0  0
   20.1176   18.5662   18.4813 C   0  0  0  0  0  0  0  0  0  0  0  0
   18.6618   16.7968   18.9442 O   0  0  0  0  0  0  0  0  0  0  0  0
   18.8059   16.6664   20.2946 C   0  0  0  0  0  0  0  0  0  0  0  0
   20.1032   16.7209   20.8183 C   0  0  0  0  0  0  0  0  0  0  0  0
   20.3397   16.5994   22.1766 C   0  0  0  0  0  0  0  0  0  0  0  0
   19.3200   16.4190   23.0862 C   0  0  0  0  0  0  0  0  0  0  0  0
   17.8009   16.4873   21.2107 C   0  0  0  0  0  0  0  0  0  0  0  0
   18.0375   16.3645   22.5790 C   0  0  0  0  0  0  0  0  0  0  0  0
   19.5404   16.2870   24.5292 C   0  0  0  0  0  0  0  0  0  0  0  0
   19.8409   17.6075   25.1870 C   0  0  0  0  0  0  0  0  0  0  0  0
   19.4275   18.6912   24.6997 O   0  0  0  0  0  0  0  0  0  0  0  0
   20.6150   17.5360   26.3812 N   0  0  0  0  0  0  0  0  0  0  0  0
   20.8578   18.7162   27.1374 C   0  0  0  0  0  0  0  0  0  0  0  0
   20.7034   18.5986   28.5190 C   0  0  0  0  0  0  0  0  0  0  0  0
   20.9114   19.6747   29.3584 C   0  0  0  0  0  0  0  0  0  0  0  0
   21.2782   20.8758   28.7882 C   0  0  0  0  0  0  0  0  0  0  0  0
   21.2253   19.9183   26.5625 C   0  0  0  0  0  0  0  0  0  0  0  0
   21.4274   20.9780   27.4196 C   0  0  0  0  0  0  0  0  0  0  0  0
   20.7504   19.5643   30.8346 C   0  0  0  0  0  0  0  0  0  0  0  0
   21.8269   22.3072   26.8613 C   0  0  0  0  0  0  0  0  0  0  0  0
  1  2  1  0
  1  3  2  0
  1  4  1  0
  5  4  1  6
  6  4  1  1
  4  7  1  1
  7  8  1  0
  8  9  2  0
  9 10  1  0
 10 11  2  0
  8 12  1  0
 11 13  1  0
 12 13  2  0
 11 14  1  0
 14 15  1  1
 15 16  2  0
 15 17  1  0
 17 18  1  0
 18 19  2  0
 19 20  1  0
 20 21  2  0
 18 22  1  0
 21 23  1  0
 22 23  2  0
 24 20  1  1
 25 23  1  1
M  END
$$$$
