7QF4_RBF_AAA_201
     RDKit          3D

 47 49  0  0  0  0  0  0  0  0999 V2000
   -2.2549    1.7457    1.4981 N   0  0  0  0  0  0  0  0  0  0  0  0
   -2.5508    2.8747    2.1952 C   0  0  0  0  0  0  0  0  0  0  0  0
   -3.6813    2.9884    2.7380 O   0  0  0  0  0  0  0  0  0  0  0  0
   -1.6369    3.8813    2.3099 N   0  0  0  0  0  0  0  0  0  0  0  0
   -0.4033    3.7946    1.7399 C   0  0  0  0  0  0  0  0  0  0  0  0
    0.4179    4.7428    1.8675 O   0  0  0  0  0  0  0  0  0  0  0  0
   -0.0561    2.6532    1.0194 C   0  0  0  0  0  0  0  0  0  0  0  0
    1.1534    2.5067    0.4409 N   0  0  0  0  0  0  0  0  0  0  0  0
    1.4704    1.3774   -0.2390 C   0  0  0  0  0  0  0  0  0  0  0  0
    2.7429    1.2758   -0.8057 C   0  0  0  0  0  0  0  0  0  0  0  0
    3.1337    0.1252   -1.5005 C   0  0  0  0  0  0  0  0  0  0  0  0
    4.5194    0.0547   -2.0884 C   0  0  0  0  0  0  0  0  0  0  0  0
    2.2369   -0.9593   -1.6016 C   0  0  0  0  0  0  0  0  0  0  0  0
    2.6282   -2.2269   -2.3188 C   0  0  0  0  0  0  0  0  0  0  0  0
    0.9513   -0.8539   -1.0437 C   0  0  0  0  0  0  0  0  0  0  0  0
    0.5303    0.3145   -0.3636 C   0  0  0  0  0  0  0  0  0  0  0  0
   -0.7394    0.4431    0.1845 N   0  0  0  0  0  0  0  0  0  0  0  0
   -1.0473    1.5778    0.8956 C   0  0  0  0  0  0  0  0  0  0  0  0
   -1.7800   -0.6051    0.0478 C   0  0  0  0  0  0  0  0  0  0  0  0
   -1.7557   -1.5778    1.2501 C   0  0  2  0  0  0  0  0  0  0  0  0
   -0.5437   -2.2872    1.2935 O   0  0  0  0  0  0  0  0  0  0  0  0
   -2.9748   -2.5539    1.2583 C   0  0  2  0  0  0  0  0  0  0  0  0
   -3.3474   -2.8130    2.5894 O   0  0  0  0  0  0  0  0  0  0  0  0
   -2.7607   -3.9201    0.5483 C   0  0  2  0  0  0  0  0  0  0  0  0
   -1.7513   -4.6669    1.1806 O   0  0  0  0  0  0  0  0  0  0  0  0
   -2.4368   -3.7870   -0.9460 C   0  0  0  0  0  0  0  0  0  0  0  0
   -2.5820   -5.0256   -1.5877 O   0  0  0  0  0  0  0  0  0  0  0  0
   -1.8897    4.7403    2.8504 H   0  0  0  0  0  0  0  0  0  0  0  0
    3.4343    2.1039   -0.6986 H   0  0  0  0  0  0  0  0  0  0  0  0
    4.4670   -0.2409   -3.1570 H   0  0  0  0  0  0  0  0  0  0  0  0
    5.1251   -0.6888   -1.5294 H   0  0  0  0  0  0  0  0  0  0  0  0
    5.0374    1.0360   -2.0360 H   0  0  0  0  0  0  0  0  0  0  0  0
    1.8623   -3.0227   -2.2001 H   0  0  0  0  0  0  0  0  0  0  0  0
    3.5835   -2.6173   -1.9100 H   0  0  0  0  0  0  0  0  0  0  0  0
    2.7482   -2.0209   -3.4029 H   0  0  0  0  0  0  0  0  0  0  0  0
    0.3080   -1.7119   -1.1329 H   0  0  0  0  0  0  0  0  0  0  0  0
   -1.7069   -1.1259   -0.9224 H   0  0  0  0  0  0  0  0  0  0  0  0
   -2.7839   -0.1304   -0.0108 H   0  0  0  0  0  0  0  0  0  0  0  0
   -1.8402   -0.9450    2.1661 H   0  0  0  0  0  0  0  0  0  0  0  0
    0.1219   -1.7067    1.7471 H   0  0  0  0  0  0  0  0  0  0  0  0
   -3.8374   -2.0612    0.7490 H   0  0  0  0  0  0  0  0  0  0  0  0
   -3.8535   -2.0214    2.9119 H   0  0  0  0  0  0  0  0  0  0  0  0
   -3.7258   -4.4779    0.6158 H   0  0  0  0  0  0  0  0  0  0  0  0
   -2.1521   -5.0697    1.9946 H   0  0  0  0  0  0  0  0  0  0  0  0
   -1.4014   -3.4082   -1.0893 H   0  0  0  0  0  0  0  0  0  0  0  0
   -3.1416   -3.0704   -1.4188 H   0  0  0  0  0  0  0  0  0  0  0  0
   -1.7712   -5.5567   -1.3727 H   0  0  0  0  0  0  0  0  0  0  0  0
  1  2  1  0
  2  3  2  0
  2  4  1  0
  4  5  1  0
  5  6  2  0
  5  7  1  0
  7  8  2  0
  8  9  1  0
  9 10  1  0
 10 11  2  0
 11 12  1  0
 11 13  1  0
 13 14  1  0
 13 15  2  0
  9 16  2  0
 15 16  1  0
 16 17  1  0
  1 18  2  0
  7 18  1  0
 17 18  1  0
 17 19  1  0
 19 20  1  0
 20 21  1  0
 20 22  1  0
 22 23  1  0
 22 24  1  0
 24 25  1  0
 24 26  1  0
 26 27  1  0
  4 28  1  0
 10 29  1  0
 12 30  1  0
 12 31  1  0
 12 32  1  0
 14 33  1  0
 14 34  1  0
 14 35  1  0
 15 36  1  0
 19 37  1  0
 19 38  1  0
 20 39  1  1
 21 40  1  0
 22 41  1  6
 23 42  1  0
 24 43  1  6
 25 44  1  0
 26 45  1  0
 26 46  1  0
 27 47  1  0
M  END
