1OYT_FSN_H_501
     RDKit          3D

 30 34  0  0  0  0  0  0  0  0999 V2000
   16.1496  -12.7687   21.2863 O   0  0  0  0  0  0  0  0  0  0  0  0
   16.0169  -11.9427   20.4009 C   0  0  0  0  0  0  0  0  0  0  0  0
   16.2682  -12.2427   19.0434 N   0  0  0  0  0  0  0  0  0  0  0  0
   16.6621  -13.5879   18.6263 C   0  0  0  0  0  0  0  0  0  0  0  0
   17.9915  -13.9474   19.2313 C   0  0  0  0  0  0  0  0  0  0  0  0
   18.1402  -13.9015   20.6308 C   0  0  0  0  0  0  0  0  0  0  0  0
   19.3605  -14.2668   21.1980 C   0  0  0  0  0  0  0  0  0  0  0  0
   20.3982  -14.6636   20.3442 C   0  0  0  0  0  0  0  0  0  0  0  0
   21.5413  -15.0226   20.9549 F   0  0  0  0  0  0  0  0  0  0  0  0
   20.3066  -14.7135   18.9457 C   0  0  0  0  0  0  0  0  0  0  0  0
   19.0592  -14.3380   18.3861 C   0  0  0  0  0  0  0  0  0  0  0  0
   15.8479  -11.1669   18.2088 C   0  0  0  0  0  0  0  0  0  0  0  0
   15.9533  -11.1403   16.9927 O   0  0  0  0  0  0  0  0  0  0  0  0
   15.2691  -10.1197   19.0461 C   0  0  1  0  0  0  0  0  0  0  0  0
   13.7424  -10.0908   19.1097 C   0  0  1  0  0  0  0  0  0  0  0  0
   13.1396  -10.8075   20.3279 N   0  0  0  0  0  0  0  0  0  0  0  0
   11.9124   -9.9940   20.5644 C   0  0  0  0  0  0  0  0  0  0  0  0
   11.5689   -9.3802   19.1684 C   0  0  0  0  0  0  0  0  0  0  0  0
   12.9411   -8.9499   18.6299 C   0  0  0  0  0  0  0  0  0  0  0  0
   14.2436  -10.3869   21.2953 C   0  0  1  0  0  0  0  0  0  0  0  0
   14.1471  -10.9258   22.6908 C   0  0  0  0  0  0  0  0  0  0  0  0
   14.1789  -12.3068   22.8579 C   0  0  0  0  0  0  0  0  0  0  0  0
   14.1544  -12.8529   24.1340 C   0  0  0  0  0  0  0  0  0  0  0  0
   14.0903  -11.9772   25.2535 C   0  0  0  0  0  0  0  0  0  0  0  0
   14.0628  -10.5877   25.0905 C   0  0  0  0  0  0  0  0  0  0  0  0
   14.0928  -10.0474   23.8011 C   0  0  0  0  0  0  0  0  0  0  0  0
   14.0499  -12.5702   26.5803 C   0  0  0  0  0  0  0  0  0  0  0  0
   13.7923  -13.8904   26.7643 N   0  0  0  0  0  0  0  0  0  0  0  0
   14.2714  -11.8537   27.7115 N   0  0  0  0  0  0  0  0  0  0  0  0
   15.5404  -10.5480   20.5239 C   0  0  1  0  0  0  0  0  0  0  0  0
  1  2  2  0
  2  3  1  0
  3  4  1  0
  4  5  1  0
  5  6  2  0
  6  7  1  0
  7  8  2  0
  8  9  1  0
  8 10  1  0
  5 11  1  0
 10 11  2  0
  3 12  1  0
 12 13  2  0
 14 12  1  6
 14 15  1  0
 15 16  1  0
 16 17  1  0
 17 18  1  0
 15 19  1  1
 18 19  1  0
 16 20  1  0
 20 21  1  1
 21 22  2  0
 22 23  1  0
 23 24  2  0
 24 25  1  0
 21 26  1  0
 25 26  2  0
 24 27  1  0
 27 28  2  0
 27 29  1  0
 30  2  1  6
 14 30  1  0
 20 30  1  0
M  CHG  1  28   1
M  END
