6ZR8_QOZ_A_302
     RDKit          3D

 33 36  0  0  0  0  0  0  0  0999 V2000
    2.4713    9.9976   13.0765 C   0  0  0  0  0  0  0  0  0  0  0  0
    3.0200   11.0917   13.7602 C   0  0  0  0  0  0  0  0  0  0  0  0
    2.3776   11.6364   14.8468 C   0  0  0  0  0  0  0  0  0  0  0  0
    3.0839   13.0011   15.6754 S   0  0  1  0  0  0  0  0  0  0  0  0
    3.1014   14.2457   14.8379 O   0  0  0  0  0  0  0  0  0  0  0  0
    2.2094   13.3050   16.8696 O   0  0  0  0  0  0  0  0  0  0  0  0
    1.1839   11.0575   15.2210 C   0  0  0  0  0  0  0  0  0  0  0  0
    0.6517    9.9859   14.5469 C   0  0  0  0  0  0  0  0  0  0  0  0
    1.2980    9.4189   13.4343 C   0  0  0  0  0  0  0  0  0  0  0  0
    0.6732    8.3222   12.8067 N   0  0  0  0  0  0  0  0  0  0  0  0
    1.1514    7.5961   11.7036 C   0  0  0  0  0  0  0  0  0  0  0  0
    2.2363    7.9002   11.1601 O   0  0  0  0  0  0  0  0  0  0  0  0
    0.3366    6.4610   11.2037 C   0  0  0  0  0  0  0  0  0  0  0  0
   -0.0401    5.5153   12.2298 N   0  0  0  0  0  0  0  0  0  0  0  0
   -0.5995    4.3731   11.5180 C   0  0  0  0  0  0  0  0  0  0  0  0
   -1.6976    3.7044   12.3109 C   0  0  0  0  0  0  0  0  0  0  0  0
   -1.0624    6.1522   13.0468 C   0  0  0  0  0  0  0  0  0  0  0  0
   -2.4024    5.9588   12.3604 C   0  0  0  0  0  0  0  0  0  0  0  0
   -2.8066    4.6000   12.5591 N   0  0  0  0  0  0  0  0  0  0  0  0
   -3.9774    4.2416   11.7831 C   0  0  2  0  0  0  0  0  0  0  0  0
   -5.1470    4.9838   12.3012 C   0  0  0  0  0  0  0  0  0  0  0  0
   -5.3486    4.9564   13.6857 C   0  0  0  0  0  0  0  0  0  0  0  0
   -6.3951    5.5972   14.2924 C   0  0  0  0  0  0  0  0  0  0  0  0
   -7.2895    6.3029   13.4862 C   0  0  0  0  0  0  0  0  0  0  0  0
   -7.0829    6.3251   12.1177 C   0  0  0  0  0  0  0  0  0  0  0  0
   -6.0309    5.6804   11.5098 C   0  0  0  0  0  0  0  0  0  0  0  0
   -4.1440    2.7699   11.8829 C   0  0  0  0  0  0  0  0  0  0  0  0
   -3.9156    1.9061   10.8354 C   0  0  0  0  0  0  0  0  0  0  0  0
   -4.0719    0.5396   10.9502 C   0  0  0  0  0  0  0  0  0  0  0  0
   -4.4709   -0.0006   12.1494 C   0  0  0  0  0  0  0  0  0  0  0  0
   -4.7133    0.8355   13.2361 C   0  0  0  0  0  0  0  0  0  0  0  0
   -4.5495    2.2024   13.0959 C   0  0  0  0  0  0  0  0  0  0  0  0
    4.6500   12.6407   16.3187 N   0  0  0  0  0  0  0  0  0  0  0  0
  1  2  2  0
  2  3  1  0
  3  4  1  0
  4  5  2  0
  4  6  2  0
  3  7  2  0
  7  8  1  0
  8  9  2  0
  1  9  1  0
  9 10  1  0
 10 11  1  0
 11 12  2  0
 11 13  1  0
 13 14  1  0
 14 15  1  0
 15 16  1  0
 14 17  1  0
 17 18  1  0
 16 19  1  0
 18 19  1  0
 20 19  1  1
 20 21  1  0
 21 22  2  0
 22 23  1  0
 23 24  2  0
 24 25  1  0
 21 26  1  0
 25 26  2  0
 20 27  1  0
 27 28  2  0
 28 29  1  0
 29 30  2  0
 30 31  1  0
 31 32  2  0
 27 32  1  0
  4 33  1  1
M  END
$$$$
