7MY1_IPE_AAA_401
     RDKit          3D

 14 13  0  0  0  0  0  0  0  0999 V2000
   16.2681    8.5898   12.9710 C   0  0  0  0  0  0  0  0  0  0  0  0
   16.0037    9.6150   13.9560 O   0  0  0  0  0  0  0  0  0  0  0  0
   15.3852    8.8349   11.7852 C   0  0  0  0  0  0  0  0  0  0  0  0
   13.9969    8.2601   11.9227 C   0  0  0  0  0  0  0  0  0  0  0  0
   13.1028    8.3849   10.9529 C   0  0  0  0  0  0  0  0  0  0  0  0
   13.7165    7.5085   13.2076 C   0  0  0  0  0  0  0  0  0  0  0  0
   16.5459    9.4497   15.4610 P   0  0  1  0  0  0  0  0  0  0  0  0
   17.5439   10.5106   15.7940 O   0  0  0  0  0  0  0  0  0  0  0  0
   15.3319    9.3287   16.3187 O   0  0  0  0  0  0  0  0  0  0  0  0
   17.2807    8.0092   15.4291 O   0  0  0  0  0  0  0  0  0  0  0  0
   18.5453    7.4553   16.2966 P   0  0  1  0  0  0  0  0  0  0  0  0
   18.8800    6.0673   15.7618 O   0  0  0  0  0  0  0  0  0  0  0  0
   19.6969    8.4455   16.0742 O   0  0  0  0  0  0  0  0  0  0  0  0
   18.0285    7.4575   17.7255 O   0  0  0  0  0  0  0  0  0  0  0  0
  1  2  1  0
  1  3  1  0
  3  4  1  0
  4  5  2  0
  4  6  1  0
  2  7  1  0
  7  8  2  0
  7  9  1  1
  7 10  1  0
 10 11  1  0
 11 12  1  6
 11 13  2  0
 11 14  1  0
M  END
