1OQ5_CEL_A_701
     RDKit          3D

 26 28  0  0  0  0  0  0  0  0999 V2000
   15.1625    0.7692   18.0951 S   0  0  2  0  0  0  0  0  0  0  0  0
   15.5957    2.2947   17.2705 C   0  0  0  0  0  0  0  0  0  0  0  0
   16.4704    2.2885   16.2102 C   0  0  0  0  0  0  0  0  0  0  0  0
   16.7300    3.4660   15.5240 C   0  0  0  0  0  0  0  0  0  0  0  0
   16.0926    4.6117   15.9184 C   0  0  0  0  0  0  0  0  0  0  0  0
   15.2157    4.6283   16.9850 C   0  0  0  0  0  0  0  0  0  0  0  0
   14.9546    3.4446   17.6849 C   0  0  0  0  0  0  0  0  0  0  0  0
   16.2987    5.8119   15.1191 N   0  0  0  0  0  0  0  0  0  0  0  0
   17.3934    6.4086   14.5591 C   0  0  0  0  0  0  0  0  0  0  0  0
   18.8133    6.1131   14.7113 C   0  0  0  0  0  0  0  0  0  0  0  0
   19.2053    5.3823   15.8223 C   0  0  0  0  0  0  0  0  0  0  0  0
   20.5346    5.1045   16.0356 C   0  0  0  0  0  0  0  0  0  0  0  0
   21.4828    5.5036   15.1212 C   0  0  0  0  0  0  0  0  0  0  0  0
   22.9357    5.1948   15.3754 C   0  0  0  0  0  0  0  0  0  0  0  0
   21.0860    6.1654   13.9648 C   0  0  0  0  0  0  0  0  0  0  0  0
   19.7669    6.4916   13.7894 C   0  0  0  0  0  0  0  0  0  0  0  0
   16.9300    7.5299   13.8761 C   0  0  0  0  0  0  0  0  0  0  0  0
   15.5467    7.4717   14.0086 C   0  0  0  0  0  0  0  0  0  0  0  0
   14.5383    8.3911   13.4105 C   0  0  2  0  0  0  0  0  0  0  0  0
   14.4133    9.5383   14.0253 F   0  0  0  0  0  0  0  0  0  0  0  0
   13.3361    7.8497   13.2457 F   0  0  0  0  0  0  0  0  0  0  0  0
   14.9003    8.6868   12.1680 F   0  0  0  0  0  0  0  0  0  0  0  0
   15.1698    6.4484   14.7509 N   0  0  0  0  0  0  0  0  0  0  0  0
   15.9887    0.6902   19.4507 N   0  0  0  0  0  0  0  0  0  0  0  0
   15.5361   -0.2958   17.2564 O   0  0  0  0  0  0  0  0  0  0  0  0
   13.7532    0.8882   18.3776 O   0  0  0  0  0  0  0  0  0  0  0  0
  1  2  1  0
  2  3  2  0
  3  4  1  0
  4  5  2  0
  5  6  1  0
  2  7  1  0
  6  7  2  0
  5  8  1  0
  8  9  1  0
  9 10  1  0
 10 11  2  0
 11 12  1  0
 12 13  2  0
 13 14  1  0
 13 15  1  0
 10 16  1  0
 15 16  2  0
  9 17  2  0
 17 18  1  0
 18 19  1  0
 19 20  1  1
 19 21  1  0
 19 22  1  0
  8 23  1  0
 18 23  2  0
  1 24  1  1
  1 25  2  0
  1 26  2  0
M  END
