7CD9_FVR_A_501
     RDKit          3D

 33 37  0  0  0  0  0  0  0  0999 V2000
   17.9851    8.6088   12.2412 C   0  0  0  0  0  0  0  0  0  0  0  0
   18.3913   10.1047   12.3897 C   0  0  1  0  0  0  0  0  0  0  0  0
   18.5268   10.4624   13.7969 C   0  0  0  0  0  0  0  0  0  0  0  0
   19.6144   10.4623   10.1790 C   0  0  0  0  0  0  0  0  0  0  0  0
   20.7331   10.9385    8.1764 C   0  0  0  0  0  0  0  0  0  0  0  0
   19.4774   10.9544    7.5694 C   0  0  0  0  0  0  0  0  0  0  0  0
   18.3515   10.7024    8.3027 C   0  0  0  0  0  0  0  0  0  0  0  0
   17.2385   10.7343    7.4438 C   0  0  0  0  0  0  0  0  0  0  0  0
   17.0591   11.1584   18.7088 C   0  0  0  0  0  0  0  0  0  0  0  0
   18.2918   11.1501   18.0681 C   0  0  0  0  0  0  0  0  0  0  0  0
   18.3898   10.8208   16.7201 C   0  0  0  0  0  0  0  0  0  0  0  0
   17.2388   10.6136   15.9878 C   0  0  0  0  0  0  0  0  0  0  0  0
   16.0088   10.6135   16.6155 C   0  0  0  0  0  0  0  0  0  0  0  0
   15.9261   10.9363   17.9722 C   0  0  0  0  0  0  0  0  0  0  0  0
   17.2339   10.2274   14.4653 C   0  0  2  0  0  0  0  0  0  0  0  0
   16.8798    8.7224   14.3422 C   0  0  0  0  0  0  0  0  0  0  0  0
   17.7705   11.0297    6.2020 C   0  0  0  0  0  0  0  0  0  0  0  0
   22.0424   10.6480   10.1660 C   0  0  0  0  0  0  0  0  0  0  0  0
   16.5219    7.0571   12.9097 C   0  0  0  0  0  0  0  0  0  0  0  0
   18.0547   11.6796   20.8727 C   0  0  0  0  0  0  0  0  0  0  0  0
   17.6421   11.7504   22.3528 C   0  0  0  0  0  0  0  0  0  0  0  0
   17.3529   10.5933   23.0495 C   0  0  0  0  0  0  0  0  0  0  0  0
   16.9901   10.6367   24.3870 C   0  0  0  0  0  0  0  0  0  0  0  0
   16.8955   11.8592   25.0273 C   0  0  0  0  0  0  0  0  0  0  0  0
   17.1721   13.0127   24.3363 C   0  0  0  0  0  0  0  0  0  0  0  0
   17.5568   12.9516   23.0090 C   0  0  0  0  0  0  0  0  0  0  0  0
   16.7747    8.3132   12.9540 N   0  0  0  0  0  0  0  0  0  0  0  0
   19.6746   10.2399   11.5914 N   0  0  0  0  0  0  0  0  0  0  0  0
   20.7467   10.7096    9.4934 N   0  0  0  0  0  0  0  0  0  0  0  0
   18.4148   10.4417    9.6254 N   0  0  0  0  0  0  0  0  0  0  0  0
   19.0870   11.1720    6.2706 N   0  0  0  0  0  0  0  0  0  0  0  0
   21.7714   11.1925    7.6023 O   0  0  0  0  0  0  0  0  0  0  0  0
   16.8933   11.4857   20.0828 O   0  0  0  0  0  0  0  0  0  0  0  0
  1  2  1  0
  2  3  1  0
  5  6  1  0
  6  7  2  0
  7  8  1  0
  9 10  2  0
 10 11  1  0
 11 12  2  0
 12 13  1  0
 13 14  2  0
  9 14  1  0
  3 15  1  0
 15 12  1  1
 15 16  1  0
  8 17  2  0
 20 21  1  0
 21 22  2  0
 22 23  1  0
 23 24  2  0
 24 25  1  0
 21 26  1  0
 25 26  2  0
 19 27  1  0
  1 27  1  0
 16 27  1  0
  2 28  1  6
  4 28  1  0
  4 29  1  0
  5 29  1  0
 18 29  1  0
  7 30  1  0
  4 30  2  0
 17 31  1  0
  6 31  1  0
  5 32  2  0
  9 33  1  0
 20 33  1  0
M  END
