6Z4N_Q7B_BBB_402
     RDKit          3D

 20 22  0  0  0  0  0  0  0  0999 V2000
   17.8603   11.3703   46.7772 C   0  0  0  0  0  0  0  0  0  0  0  0
   17.2526   10.4589   45.9296 C   0  0  0  0  0  0  0  0  0  0  0  0
   16.4810    9.4466   46.4343 C   0  0  0  0  0  0  0  0  0  0  0  0
   15.8460    8.5457   45.5577 C   0  0  0  0  0  0  0  0  0  0  0  0
   16.2758    9.3794   47.7956 C   0  0  0  0  0  0  0  0  0  0  0  0
   16.9158   10.2710   48.6712 C   0  0  0  0  0  0  0  0  0  0  0  0
   17.7138   11.3045   48.1728 C   0  0  0  0  0  0  0  0  0  0  0  0
   18.3668   12.3020   49.0256 C   0  0  0  0  0  0  0  0  0  0  0  0
   18.6140   11.8283   50.4602 C   0  0  1  0  0  0  0  0  0  0  0  0
   19.6885   10.7495   50.5792 C   0  0  0  0  0  0  0  0  0  0  0  0
   19.7847   10.1267   51.6573 O   0  0  0  0  0  0  0  0  0  0  0  0
   20.4818   10.6140   49.6037 O   0  0  0  0  0  0  0  0  0  0  0  0
   18.6290   12.9008   51.4701 C   0  0  0  0  0  0  0  0  0  0  0  0
   17.5062   11.8654   51.5009 C   0  0  1  0  0  0  0  0  0  0  0  0
   16.1267   12.1529   51.1339 C   0  0  0  0  0  0  0  0  0  0  0  0
   15.2928   11.0925   50.7398 C   0  0  0  0  0  0  0  0  0  0  0  0
   14.0019   11.2764   50.3773 C   0  0  0  0  0  0  0  0  0  0  0  0
   13.4389   12.5188   50.4231 C   0  0  0  0  0  0  0  0  0  0  0  0
   14.2436   13.5707   50.8134 C   0  0  0  0  0  0  0  0  0  0  0  0
   15.5381   13.4133   51.1818 C   0  0  0  0  0  0  0  0  0  0  0  0
  1  2  2  0
  2  3  1  0
  3  4  1  0
  3  5  2  0
  5  6  1  0
  6  7  2  0
  1  7  1  0
  7  8  1  0
  9  8  1  6
  9 10  1  0
 10 11  1  0
 10 12  2  0
  9 13  1  0
 13 14  1  0
  9 14  1  0
 14 15  1  6
 15 16  2  0
 16 17  1  0
 17 18  2  0
 18 19  1  0
 19 20  2  0
 15 20  1  0
M  END
