7P85_5ZG_A_401
     RDKit          3D

 14 14  0  0  0  0  0  0  0  0999 V2000
   15.0176  -31.7160   -4.2743 C   0  0  0  0  0  0  0  0  0  0  0  0
   13.6387  -31.8689   -4.2574 C   0  0  0  0  0  0  0  0  0  0  0  0
   12.9012  -31.4914   -3.1500 C   0  0  0  0  0  0  0  0  0  0  0  0
   13.5063  -31.0125   -1.9985 C   0  0  0  0  0  0  0  0  0  0  0  0
   14.8798  -30.8685   -2.0118 C   0  0  0  0  0  0  0  0  0  0  0  0
   15.6263  -31.2333   -3.1213 C   0  0  0  0  0  0  0  0  0  0  0  0
   15.8431  -32.0969   -5.4848 C   0  0  0  0  0  0  0  0  0  0  0  0
   12.6811  -30.6063   -0.7931 C   0  0  0  0  0  0  0  0  0  0  0  0
   16.6230  -28.4513   -4.8787 C   0  0  0  0  0  0  0  0  0  0  0  0
   17.3916  -28.2135   -3.6408 C   0  0  0  0  0  0  0  0  0  0  0  0
   16.4349  -30.6666   -6.3722 P   0  0  2  0  0  0  0  0  0  0  0  0
   16.9331  -29.7830   -5.1765 O   0  0  0  0  0  0  0  0  0  0  0  0
   15.2171  -30.1570   -7.2201 O   0  0  0  0  0  0  0  0  0  0  0  0
   17.6470  -30.8820   -7.1954 O   0  0  0  0  0  0  0  0  0  0  0  0
  1  2  2  0
  2  3  1  0
  3  4  2  0
  4  5  1  0
  1  6  1  0
  5  6  2  0
  1  7  1  0
  4  8  1  0
  9 10  1  0
  7 11  1  0
 11 12  1  0
  9 12  1  0
 11 13  1  6
 11 14  2  0
M  END
