6VTA_AKN_A_302
     RDKit          3D

 83 85  0  0  0  0  0  0  0  0999 V2000
   99.3577    7.6624   25.0577 C   0  0  2  0  0  0  0  0  0  0  0  0
   98.1657    6.7202   24.9864 C   0  0  2  0  0  0  0  0  0  0  0  0
   97.2223    7.0087   26.1019 C   0  0  1  0  0  0  0  0  0  0  0  0
   96.7211    8.4179   26.0387 C   0  0  2  0  0  0  0  0  0  0  0  0
   97.8966    9.3948   26.0580 C   0  0  2  0  0  0  0  0  0  0  0  0
   97.4323   10.7966   25.8159 C   0  0  0  0  0  0  0  0  0  0  0  0
   95.9156    8.7178   27.1841 O   0  0  0  0  0  0  0  0  0  0  0  0
  100.0254    7.3825   26.2372 O   0  0  0  0  0  0  0  0  0  0  0  0
   98.8714    9.0701   25.0129 O   0  0  0  0  0  0  0  0  0  0  0  0
   96.3165   10.7763   24.8868 N   0  0  0  0  0  0  0  0  0  0  0  0
   98.8042    6.4425   30.1902 C   0  0  1  0  0  0  0  0  0  0  0  0
   98.2857    5.6428   31.3071 N   0  0  0  0  0  0  0  0  0  0  0  0
   99.9017    5.6156   29.5176 C   0  0  0  0  0  0  0  0  0  0  0  0
  100.4539    6.3608   28.2890 C   0  0  1  0  0  0  0  0  0  0  0  0
  101.5067    5.5686   27.6467 N   0  0  0  0  0  0  0  0  0  0  0  0
   99.3380    6.6970   27.2955 C   0  0  1  0  0  0  0  0  0  0  0  0
   98.2676    7.5468   27.9977 C   0  0  1  0  0  0  0  0  0  0  0  0
   97.1794    7.8446   27.1547 O   0  0  0  0  0  0  0  0  0  0  0  0
   97.6758    6.8205   29.2211 C   0  0  2  0  0  0  0  0  0  0  0  0
   96.7693    7.7150   29.8480 O   0  0  0  0  0  0  0  0  0  0  0  0
   96.2260    7.2508   31.0273 C   0  0  1  0  0  0  0  0  0  0  0  0
   94.9885    6.4256   30.7285 C   0  0  1  0  0  0  0  0  0  0  0  0
   94.0760    7.2173   29.9424 O   0  0  0  0  0  0  0  0  0  0  0  0
   95.3339    5.1621   30.0022 C   0  0  2  0  0  0  0  0  0  0  0  0
   94.0796    4.3810   29.7378 N   0  0  0  0  0  0  0  0  0  0  0  0
   96.3020    4.3439   30.8195 C   0  0  1  0  0  0  0  0  0  0  0  0
   96.6661    3.1488   30.1159 O   0  0  0  0  0  0  0  0  0  0  0  0
   97.5605    5.1588   31.0962 C   0  0  1  0  0  0  0  0  0  0  0  0
   97.2437    6.4305   31.7738 O   0  0  0  0  0  0  0  0  0  0  0  0
   98.5217    4.3974   31.9662 C   0  0  0  0  0  0  0  0  0  0  0  0
   97.7883    3.6033   32.8665 O   0  0  0  0  0  0  0  0  0  0  0  0
   98.6570    5.3775   25.0891 O   0  0  0  0  0  0  0  0  0  0  0  0
   96.1153    6.0899   25.9852 O   0  0  0  0  0  0  0  0  0  0  0  0
   95.0354    4.4892   31.7743 N   0  0  0  0  0  0  0  0  0  0  0  0
   99.0630    4.5060   31.8197 C   0  0  0  0  0  0  0  0  0  0  0  0
  100.2441    4.5597   31.9278 O   0  0  0  0  0  0  0  0  0  0  0  0
   98.2921    3.2556   32.2100 C   0  0  1  0  0  0  0  0  0  0  0  0
   97.0540    3.1461   31.2800 C   0  0  0  0  0  0  0  0  0  0  0  0
   96.3847    4.5478   31.1283 C   0  0  0  0  0  0  0  0  0  0  0  0
   99.1195    2.1757   31.9936 O   0  0  0  0  0  0  0  0  0  0  0  0
  100.0258    7.5315   24.2323 H   0  0  0  0  0  0  0  0  0  0  0  0
   97.6413    6.8516   24.0630 H   0  0  0  0  0  0  0  0  0  0  0  0
   97.7253    6.8893   27.0388 H   0  0  0  0  0  0  0  0  0  0  0  0
   96.1510    8.5157   25.1385 H   0  0  0  0  0  0  0  0  0  0  0  0
   98.3477    9.3118   27.0247 H   0  0  0  0  0  0  0  0  0  0  0  0
   97.1200   11.2349   26.7408 H   0  0  0  0  0  0  0  0  0  0  0  0
   98.2330   11.3744   25.4036 H   0  0  0  0  0  0  0  0  0  0  0  0
   96.4494    8.6236   27.9884 H   0  0  0  0  0  0  0  0  0  0  0  0
   95.5548   10.2251   25.2823 H   0  0  0  0  0  0  0  0  0  0  0  0
   95.9953   11.7300   24.7204 H   0  0  0  0  0  0  0  0  0  0  0  0
   99.2143    7.3693   30.5334 H   0  0  0  0  0  0  0  0  0  0  0  0
   97.4174    5.8682   31.7126 H   0  0  0  0  0  0  0  0  0  0  0  0
  100.6955    5.4483   30.2153 H   0  0  0  0  0  0  0  0  0  0  0  0
   99.4889    4.6804   29.2013 H   0  0  0  0  0  0  0  0  0  0  0  0
  100.8778    7.2856   28.6208 H   0  0  0  0  0  0  0  0  0  0  0  0
  101.1170    4.6827   27.3247 H   0  0  0  0  0  0  0  0  0  0  0  0
  101.8824    6.0840   26.8507 H   0  0  0  0  0  0  0  0  0  0  0  0
   98.8059    5.8519   26.9112 H   0  0  0  0  0  0  0  0  0  0  0  0
   98.7752    8.4436   28.2862 H   0  0  0  0  0  0  0  0  0  0  0  0
   96.7310    7.0222   26.9028 H   0  0  0  0  0  0  0  0  0  0  0  0
   97.1716    5.9233   28.9281 H   0  0  0  0  0  0  0  0  0  0  0  0
   95.9452    8.0809   31.6412 H   0  0  0  0  0  0  0  0  0  0  0  0
   94.5294    6.1482   31.6544 H   0  0  0  0  0  0  0  0  0  0  0  0
   94.5002    7.4640   29.1057 H   0  0  0  0  0  0  0  0  0  0  0  0
   95.7993    5.4025   29.0692 H   0  0  0  0  0  0  0  0  0  0  0  0
   93.6308    4.1484   30.6236 H   0  0  0  0  0  0  0  0  0  0  0  0
   93.4431    4.9415   29.1710 H   0  0  0  0  0  0  0  0  0  0  0  0
   95.8279    4.0801   31.7417 H   0  0  0  0  0  0  0  0  0  0  0  0
   97.0963    3.3845   29.2790 H   0  0  0  0  0  0  0  0  0  0  0  0
   98.0063    5.3577   30.1440 H   0  0  0  0  0  0  0  0  0  0  0  0
   99.1401    3.7721   31.3568 H   0  0  0  0  0  0  0  0  0  0  0  0
   99.1419    5.0813   32.5072 H   0  0  0  0  0  0  0  0  0  0  0  0
   97.2282    2.9857   32.3707 H   0  0  0  0  0  0  0  0  0  0  0  0
   99.1302    5.2696   25.9290 H   0  0  0  0  0  0  0  0  0  0  0  0
   95.6774    6.2183   25.1293 H   0  0  0  0  0  0  0  0  0  0  0  0
   94.5774    5.3964   31.6876 H   0  0  0  0  0  0  0  0  0  0  0  0
   94.4688    3.7768   31.3141 H   0  0  0  0  0  0  0  0  0  0  0  0
   97.9789    3.2878   33.2327 H   0  0  0  0  0  0  0  0  0  0  0  0
   97.3619    2.7929   30.3181 H   0  0  0  0  0  0  0  0  0  0  0  0
   96.3504    2.4616   31.7058 H   0  0  0  0  0  0  0  0  0  0  0  0
   96.9855    5.2910   31.6094 H   0  0  0  0  0  0  0  0  0  0  0  0
   96.2904    4.8043   30.0938 H   0  0  0  0  0  0  0  0  0  0  0  0
   99.3945    2.1604   31.0636 H   0  0  0  0  0  0  0  0  0  0  0  0
  1  2  1  0
  2  3  1  0
  3  4  1  0
  4  5  1  0
  5  6  1  0
  4  7  1  0
  1  8  1  0
  5  9  1  0
  1  9  1  0
  6 10  1  0
 11 12  1  0
 11 13  1  0
 13 14  1  0
 14 15  1  0
 14 16  1  0
 16  8  1  0
 16 17  1  0
 17 18  1  0
 11 19  1  0
 17 19  1  0
 19 20  1  0
 21 20  1  0
 21 22  1  0
 22 23  1  0
 22 24  1  0
 24 25  1  0
 24 26  1  0
 26 27  1  0
 26 28  1  0
 21 29  1  0
 28 29  1  0
 28 30  1  0
 30 31  1  0
  2 32  1  0
  3 33  1  0
 12 35  1  0
 35 36  2  0
 35 37  1  0
 37 38  1  0
 38 39  1  0
 34 39  1  0
 37 40  1  0
  1 41  1  1
  2 42  1  1
  3 43  1  6
  4 44  1  1
  5 45  1  6
  6 46  1  0
  6 47  1  0
  7 48  1  0
 10 49  1  0
 10 50  1  0
 11 51  1  6
 12 52  1  0
 13 53  1  0
 13 54  1  0
 14 55  1  6
 15 56  1  0
 15 57  1  0
 16 58  1  1
 17 59  1  6
 18 60  1  0
 19 61  1  1
 21 62  1  6
 22 63  1  6
 23 64  1  0
 24 65  1  1
 25 66  1  0
 25 67  1  0
 26 68  1  6
 27 69  1  0
 28 70  1  1
 30 71  1  0
 30 72  1  0
 31 73  1  0
 32 74  1  0
 33 75  1  0
 34 76  1  0
 34 77  1  0
 37 78  1  6
 38 79  1  0
 38 80  1  0
 39 81  1  0
 39 82  1  0
 40 83  1  0
M  END
