
     RDKit          3D

 29 31  0  0  0  0  0  0  0  0999 V2000
    8.6451    3.7908   14.6827 C   0  0  0  0  0  0  0  0  0  0  0  0
    7.8090    1.1842   12.4582 C   0  0  0  0  0  0  0  0  0  0  0  0
    6.6165   -2.0378   15.3459 C   0  0  0  0  0  0  0  0  0  0  0  0
    4.5414   -3.2349   15.1945 C   0  0  0  0  0  0  0  0  0  0  0  0
    3.9834   -2.1686   14.4793 C   0  0  0  0  0  0  0  0  0  0  0  0
    4.7280   -1.0166   14.1703 C   0  0  0  0  0  0  0  0  0  0  0  0
    4.5402    0.7608   12.3295 C   0  0  0  0  0  0  0  0  0  0  0  0
    8.8361    2.2228   12.9188 C   0  0  0  0  0  0  0  0  0  0  0  0
    7.8173   -0.0505   13.3608 C   0  0  0  0  0  0  0  0  0  0  0  0
    6.0693   -0.9829   14.5955 C   0  0  0  0  0  0  0  0  0  0  0  0
    5.8588   -3.1689   15.6505 C   0  0  0  0  0  0  0  0  0  0  0  0
    6.4690   -4.2895   16.4380 C   0  0  0  0  0  0  0  0  0  0  0  0
    5.1538    3.7170   15.2371 C   0  0  0  0  0  0  0  0  0  0  0  0
    6.4738    3.3740   15.9147 C   0  0  0  0  0  0  0  0  0  0  0  0
    7.5868    4.2753   15.4383 C   0  0  0  0  0  0  0  0  0  0  0  0
    8.4876    6.3851   15.4370 C   0  0  0  0  0  0  0  0  0  0  0  0
    9.6560    4.7094   14.4196 C   0  0  0  0  0  0  0  0  0  0  0  0
    3.1502    1.4154   12.3026 C   0  0  2  0  0  0  0  0  0  0  0  0
    2.7204    0.2129   13.1568 C   0  0  0  0  0  0  0  0  0  0  0  0
    2.4844    1.6050   10.9347 C   0  0  0  0  0  0  0  0  0  0  0  0
    7.5015    5.5715   15.8195 N   0  0  0  0  0  0  0  0  0  0  0  0
    8.3960    7.7102   15.8092 N   0  0  0  0  0  0  0  0  0  0  0  0
    9.5803    6.0032   14.7741 N   0  0  0  0  0  0  0  0  0  0  0  0
   10.8446    4.3533   13.7695 N   0  0  0  0  0  0  0  0  0  0  0  0
    4.1038    0.0610   13.5010 N   0  0  0  0  0  0  0  0  0  0  0  0
    8.6336    2.4727   14.3203 O   0  0  0  0  0  0  0  0  0  0  0  0
    6.8349    0.1406   14.3893 O   0  0  0  0  0  0  0  0  0  0  0  0
    3.0181    1.8197    9.8543 O   0  0  0  0  0  0  0  0  0  0  0  0
    1.1303    1.5299   10.9725 O   0  0  0  0  0  0  0  0  0  0  0  0
  4  5  4  0
  5  6  4  0
  2  8  1  0
  2  9  1  0
  3 10  4  0
  6 10  4  0
  3 11  4  0
  4 11  4  0
 11 12  1  0
 13 14  1  0
 14 15  1  0
  1 15  4  0
  1 17  4  0
  7 18  1  0
 18 19  1  0
 18 20  1  6
 15 21  4  0
 16 21  4  0
 16 22  1  0
 16 23  4  0
 17 23  4  0
 17 24  1  0
  6 25  1  0
  7 25  1  0
 19 25  1  0
  1 26  1  0
  8 26  1  0
  9 27  1  0
 10 27  1  0
 20 28  2  0
 20 29  1  0
M  END
