
     RDKit          3D

 16 16  0  0  0  0  0  0  0  0999 V2000
    3.4259    5.9328  -36.8486 C   0  0  1  0  0  0  0  0  0  0  0  0
    4.3486    6.1561  -35.6259 C   0  0  1  0  0  0  0  0  0  0  0  0
    5.6200    5.3061  -35.7958 C   0  0  2  0  0  0  0  0  0  0  0  0
    5.2476    3.8382  -36.0341 C   0  0  1  0  0  0  0  0  0  0  0  0
    4.2771    3.7315  -37.2257 C   0  0  0  0  0  0  0  0  0  0  0  0
    3.7981    2.2874  -37.4268 C   0  0  0  0  0  0  0  0  0  0  0  0
    4.0304    6.4429  -38.0305 O   0  0  0  0  0  0  0  0  0  0  0  0
    4.6943    7.5822  -35.4140 N   0  0  0  0  0  0  0  0  0  0  0  0
    6.4400    5.4052  -34.6184 O   0  0  0  0  0  0  0  0  0  0  0  0
    6.4612    3.1001  -36.2383 O   0  0  0  0  0  0  0  0  0  0  0  0
    3.1182    4.5522  -37.0270 O   0  0  0  0  0  0  0  0  0  0  0  0
    4.0125    1.5146  -36.2542 O   0  0  0  0  0  0  0  0  0  0  0  0
    4.0192   -0.0774  -36.4324 P   0  0  0  0  0  5  0  0  0  0  0  0
    4.5201   -0.8796  -35.2855 O   0  0  0  0  0  0  0  0  0  0  0  0
    4.7888   -0.3252  -37.8050 O   0  0  0  0  0  0  0  0  0  0  0  0
    2.5100   -0.4011  -36.8305 O   0  0  0  0  0  0  0  0  0  0  0  0
  1  2  1  0
  2  3  1  0
  3  4  1  0
  4  5  1  0
  5  6  1  0
  1  7  1  6
  2  8  1  6
  3  9  1  1
  4 10  1  6
  1 11  1  0
  5 11  1  0
  6 12  1  0
 12 13  1  0
 13 14  2  0
 13 15  1  0
 13 16  1  0
M  END
