
     RDKit          3D

  9  8  0  0  0  0  0  0  0  0999 V2000
   32.9973   50.0087   -3.5043 C   0  0  0  0  0  0  0  0  0  0  0  0
   34.0342   49.7175   -2.9241 O   0  0  0  0  0  0  0  0  0  0  0  0
   32.7520   49.5379   -4.7389 O   0  0  0  0  0  0  0  0  0  0  0  0
   31.8691   50.8426   -2.9033 C   0  0  0  0  0  0  0  0  0  0  0  0
   30.6059   50.3492   -3.3768 O   0  0  0  0  0  0  0  0  0  0  0  0
   31.8661   50.7860   -1.3804 C   0  0  0  0  0  0  0  0  0  0  0  0
   31.6376   52.1375   -0.7711 C   0  0  0  0  0  0  0  0  0  0  0  0
   32.7581   52.8584   -0.5910 O   0  0  0  0  0  0  0  0  0  0  0  0
   30.5652   52.5711   -0.3818 O   0  0  0  0  0  0  0  0  0  0  0  0
  1  2  2  0
  1  3  1  0
  1  4  1  0
  4  5  1  0
  4  6  1  0
  6  7  1  0
  7  8  1  0
  7  9  2  0
M  END
