7JNB_A2G_A_503
     RDKit          3D

 15 15  0  0  0  0  0  0  0  0999 V2000
   48.3175   11.0506  102.9877 O   0  0  0  0  0  0  0  0  0  0  0  0
   47.6726   12.0512  102.1818 C   0  0  2  0  0  0  0  0  0  0  0  0
   46.2780   11.7853  102.2065 O   0  0  0  0  0  0  0  0  0  0  0  0
   48.1410   12.0470  100.7221 C   0  0  2  0  0  0  0  0  0  0  0  0
   47.3173   12.9038   99.8733 N   0  0  0  0  0  0  0  0  0  0  0  0
   48.1292   10.6217  100.1676 C   0  0  1  0  0  0  0  0  0  0  0  0
   48.5799   10.6497   98.8086 O   0  0  0  0  0  0  0  0  0  0  0  0
   48.9036    9.6695  101.0832 C   0  0  1  0  0  0  0  0  0  0  0  0
   50.2766   10.0642  101.1942 O   0  0  0  0  0  0  0  0  0  0  0  0
   48.2612    9.7179  102.4742 C   0  0  1  0  0  0  0  0  0  0  0  0
   48.9528    8.8048  103.4724 C   0  0  0  0  0  0  0  0  0  0  0  0
   48.1714    7.6183  103.7109 O   0  0  0  0  0  0  0  0  0  0  0  0
   47.6890   14.1509   99.5920 C   0  0  0  0  0  0  0  0  0  0  0  0
   48.6860   14.6345  100.1017 O   0  0  0  0  0  0  0  0  0  0  0  0
   46.8336   14.9095   98.6298 C   0  0  0  0  0  0  0  0  0  0  0  0
  1  2  1  0
  2  3  1  6
  2  4  1  0
  4  5  1  6
  4  6  1  0
  6  7  1  6
  6  8  1  0
  8  9  1  1
  1 10  1  0
  8 10  1  0
 10 11  1  1
 11 12  1  0
  5 13  1  0
 13 14  2  0
 13 15  1  0
M  END
