7UJ5_DGL_B_301
     RDKit          3D

 10  9  0  0  0  0  0  0  0  0999 V2000
  -16.2846    2.1474  -25.7124 N   0  0  0  0  0  0  0  0  0  0  0  0
  -16.6132    0.8839  -26.3754 C   0  0  1  0  0  0  0  0  0  0  0  0
  -17.6312    0.1131  -25.5585 C   0  0  0  0  0  0  0  0  0  0  0  0
  -17.9838    0.5951  -24.4646 O   0  0  0  0  0  0  0  0  0  0  0  0
  -17.2044    1.1881  -27.7517 C   0  0  0  0  0  0  0  0  0  0  0  0
  -16.1355    1.2716  -28.8239 C   0  0  0  0  0  0  0  0  0  0  0  0
  -15.2214    0.0393  -28.7844 C   0  0  0  0  0  0  0  0  0  0  0  0
  -15.6774   -1.0636  -29.2217 O   0  0  0  0  0  0  0  0  0  0  0  0
  -14.0655    0.1675  -28.3016 O   0  0  0  0  0  0  0  0  0  0  0  0
  -18.1139   -0.9610  -25.9796 O   0  0  0  0  0  0  0  0  0  0  0  0
  2  1  1  1
  2  3  1  0
  3  4  2  0
  2  5  1  0
  5  6  1  0
  6  7  1  0
  7  8  2  0
  7  9  1  0
  3 10  1  0
M  END
