7OMX_CNA_AAA_301
     RDKit          3D

 44 48  0  0  0  0  0  0  0  0999 V2000
    8.8199  -10.3204  -12.0655 P   0  0  2  0  0  0  0  0  0  0  0  0
    8.9458   -9.9214  -13.7202 O   0  0  0  0  0  0  0  0  0  0  0  0
    7.3434  -10.1561  -11.7101 O   0  0  0  0  0  0  0  0  0  0  0  0
    9.7862   -9.2769  -11.1905 O   0  0  0  0  0  0  0  0  0  0  0  0
    9.3260   -9.0407   -9.8966 C   0  0  0  0  0  0  0  0  0  0  0  0
    9.8159  -10.2004   -9.0625 C   0  0  1  0  0  0  0  0  0  0  0  0
    8.9843  -11.3250   -9.1818 O   0  0  0  0  0  0  0  0  0  0  0  0
   11.1260  -10.7540   -9.5690 C   0  0  1  0  0  0  0  0  0  0  0  0
   12.2114   -9.9797   -9.1863 O   0  0  0  0  0  0  0  0  0  0  0  0
   11.1493  -12.1166   -8.8822 C   0  0  1  0  0  0  0  0  0  0  0  0
   11.9461  -12.0001   -7.7572 O   0  0  0  0  0  0  0  0  0  0  0  0
    9.7142  -12.2465   -8.4341 C   0  0  2  0  0  0  0  0  0  0  0  0
    9.2655  -13.6088   -8.6052 N   0  0  0  0  0  0  0  0  0  0  0  0
    8.4753  -14.1666   -9.5227 C   0  0  0  0  0  0  0  0  0  0  0  0
    8.3333  -15.5014   -9.2745 N   0  0  0  0  0  0  0  0  0  0  0  0
    9.0555  -15.7942   -8.1674 C   0  0  0  0  0  0  0  0  0  0  0  0
    9.2844  -16.9652   -7.4559 C   0  0  0  0  0  0  0  0  0  0  0  0
    8.7066  -18.1860   -7.8549 N   0  0  0  0  0  0  0  0  0  0  0  0
   10.0814  -16.9228   -6.3566 N   0  0  0  0  0  0  0  0  0  0  0  0
   10.6368  -15.7420   -5.9757 C   0  0  0  0  0  0  0  0  0  0  0  0
   10.4048  -14.6285   -6.6724 N   0  0  0  0  0  0  0  0  0  0  0  0
    9.6256  -14.6041   -7.7692 C   0  0  0  0  0  0  0  0  0  0  0  0
    9.2416  -11.9407  -11.8514 O   0  0  0  0  0  0  0  0  0  0  0  0
    8.8101  -12.8221  -13.2013 P   0  0  1  0  0  0  0  0  0  0  0  0
    9.5418  -12.2182  -14.3936 O   0  0  0  0  0  0  0  0  0  0  0  0
    9.4126  -14.4174  -13.0736 O   0  0  0  0  0  0  0  0  0  0  0  0
    7.1774  -12.8125  -13.5505 O   0  0  0  0  0  0  0  0  0  0  0  0
    6.7900  -13.7143  -14.5100 C   0  0  0  0  0  0  0  0  0  0  0  0
    5.3024  -13.5969  -14.7134 C   0  0  1  0  0  0  0  0  0  0  0  0
    4.9626  -13.2235  -16.1603 C   0  0  0  0  0  0  0  0  0  0  0  0
    4.6830  -14.9914  -14.6595 C   0  0  1  0  0  0  0  0  0  0  0  0
    4.6277  -15.4574  -13.3401 O   0  0  0  0  0  0  0  0  0  0  0  0
    3.3373  -14.7743  -15.2684 C   0  0  1  0  0  0  0  0  0  0  0  0
    2.5128  -14.2310  -14.2968 O   0  0  0  0  0  0  0  0  0  0  0  0
    3.5818  -13.8020  -16.3714 C   0  0  2  0  0  0  0  0  0  0  0  0
    3.3566  -14.3094  -17.6952 N   0  0  0  0  0  0  0  0  0  0  0  0
    2.2411  -13.9384  -18.3885 C   0  0  0  0  0  0  0  0  0  0  0  0
    1.9806  -14.3970  -19.6588 C   0  0  0  0  0  0  0  0  0  0  0  0
    0.7679  -13.9608  -20.3454 C   0  0  0  0  0  0  0  0  0  0  0  0
   -0.0928  -13.2427  -19.7653 O   0  0  0  0  0  0  0  0  0  0  0  0
    0.5275  -14.3396  -21.6975 N   0  0  0  0  0  0  0  0  0  0  0  0
    2.8462  -15.2585  -20.2868 C   0  0  0  0  0  0  0  0  0  0  0  0
    3.9799  -15.6399  -19.5910 C   0  0  0  0  0  0  0  0  0  0  0  0
    4.1993  -15.1502  -18.3111 C   0  0  0  0  0  0  0  0  0  0  0  0
  1  2  1  6
  1  3  2  0
  1  4  1  0
  4  5  1  0
  6  5  1  6
  6  7  1  0
  6  8  1  0
  8  9  1  1
  8 10  1  0
 10 11  1  1
 10 12  1  0
  7 12  1  0
 12 13  1  6
 13 14  1  0
 14 15  2  0
 15 16  1  0
 16 17  2  0
 17 18  1  0
 17 19  1  0
 19 20  2  0
 20 21  1  0
 21 22  2  0
 13 22  1  0
 16 22  1  0
  1 23  1  0
 23 24  1  0
 24 25  2  0
 24 26  1  1
 24 27  1  0
 27 28  1  0
 29 28  1  6
 29 30  1  0
 29 31  1  0
 31 32  1  1
 31 33  1  0
 33 34  1  1
 33 35  1  0
 30 35  1  0
 35 36  1  6
 36 37  2  0
 37 38  1  0
 38 39  1  0
 39 40  2  0
 39 41  1  0
 38 42  2  0
 42 43  1  0
 36 44  1  0
 43 44  2  0
M  CHG  1  36   1
M  END
$$$$
