7OZ9_NGK_BBB_602
     RDKit          3D

 34 34  0  0  0  0  0  0  0  0999 V2000
   48.0752   48.6915   79.0769 C   0  0  1  0  0  0  0  0  0  0  0  0
   48.1550   47.4947   78.0968 C   0  0  1  0  0  0  0  0  0  0  0  0
   47.7952   46.1680   78.8192 C   0  0  2  0  0  0  0  0  0  0  0  0
   48.0932   46.2470   80.3304 C   0  0  2  0  0  0  0  0  0  0  0  0
   47.2900   47.4547   80.9253 C   0  0  1  0  0  0  0  0  0  0  0  0
   47.8989   48.0413   82.2090 C   0  0  2  0  0  0  0  0  0  0  0  0
   47.1609   46.7538   75.8749 C   0  0  0  0  0  0  0  0  0  0  0  0
   45.8722   46.5880   75.1381 C   0  0  2  0  0  0  0  0  0  0  0  0
   47.2482   47.6883   76.9593 N   0  0  0  0  0  0  0  0  0  0  0  0
   47.8688   49.8839   78.3672 O   0  0  0  0  0  0  0  0  0  0  0  0
   48.4329   45.0663   78.2221 O   0  0  0  0  0  0  0  0  0  0  0  0
   49.4869   46.4283   80.5281 O   0  0  0  0  0  0  0  0  0  0  0  0
   47.0144   48.5003   79.9946 O   0  0  0  0  0  0  0  0  0  0  0  0
   49.1938   48.5107   81.9560 O   0  0  0  0  0  0  0  0  0  0  0  0
   48.1561   46.0489   75.5546 O   0  0  0  0  0  0  0  0  0  0  0  0
   50.0207   45.5733   81.8967 S   0  0  2  0  0  6  0  0  0  0  0  0
   49.4439   46.1708   83.1495 O   0  0  0  0  0  0  0  0  0  0  0  0
   51.6969   45.6627   81.9701 O   0  0  0  0  0  0  0  0  0  0  0  0
   49.6193   44.1277   81.8018 O   0  0  0  0  0  0  0  0  0  0  0  0
   49.0471   48.7851   79.6186 H   0  0  0  0  0  0  0  0  0  0  0  0
   49.2050   47.4581   77.7295 H   0  0  0  0  0  0  0  0  0  0  0  0
   46.6985   46.0003   78.7200 H   0  0  0  0  0  0  0  0  0  0  0  0
   47.6988   45.3178   80.8069 H   0  0  0  0  0  0  0  0  0  0  0  0
   46.2949   47.0495   81.2157 H   0  0  0  0  0  0  0  0  0  0  0  0
   47.9468   47.2417   82.9818 H   0  0  0  0  0  0  0  0  0  0  0  0
   47.2627   48.8639   82.6040 H   0  0  0  0  0  0  0  0  0  0  0  0
   46.0071   46.8152   74.0587 H   0  0  0  0  0  0  0  0  0  0  0  0
   45.1105   47.2796   75.5560 H   0  0  0  0  0  0  0  0  0  0  0  0
   45.5156   45.5429   75.2487 H   0  0  0  0  0  0  0  0  0  0  0  0
   46.5336   48.4500   77.0131 H   0  0  0  0  0  0  0  0  0  0  0  0
   48.0490   50.6246   79.0034 H   0  0  0  0  0  0  0  0  0  0  0  0
   48.5916   44.3863   78.9271 H   0  0  0  0  0  0  0  0  0  0  0  0
   49.8022   47.7452   82.1246 H   0  0  0  0  0  0  0  0  0  0  0  0
   51.8850   46.5392   82.3918 H   0  0  0  0  0  0  0  0  0  0  0  0
  1  2  1  0
  2  3  1  0
  3  4  1  0
  4  5  1  0
  5  6  1  0
  7  8  1  0
  2  9  1  0
  7  9  1  0
  1 10  1  0
  3 11  1  0
  4 12  1  0
  1 13  1  0
  5 13  1  0
  6 14  1  0
  7 15  2  0
 16 12  1  6
 16 17  2  0
 16 18  1  0
 16 19  2  0
  1 20  1  1
  2 21  1  6
  3 22  1  1
  4 23  1  1
  5 24  1  1
  6 25  1  1
  6 26  1  0
  8 27  1  6
  8 28  1  0
  8 29  1  0
  9 30  1  0
 10 31  1  0
 11 32  1  0
 14 33  1  0
 18 34  1  0
M  END
