8BPL_CP_A_2401
     RDKit          3D

 12 11  0  0  0  0  0  0  0  0999 V2000
  -33.1371   30.6026   11.9023 N   0  0  0  0  0  0  0  0  0  0  0  0
  -32.3421   31.2274   12.9063 C   0  0  0  0  0  0  0  0  0  0  0  0
  -31.2208   30.7370   13.2093 O   0  0  0  0  0  0  0  0  0  0  0  0
  -32.8166   32.3762   13.5429 O   0  0  0  0  0  0  0  0  0  0  0  0
  -31.9004   33.2159   14.7311 P   0  0  2  0  0  5  0  0  0  0  0  0
  -30.5831   33.6582   14.1355 O   0  0  0  0  0  0  0  0  0  0  0  0
  -31.6087   32.1958   16.0493 O   0  0  0  0  0  0  0  0  0  0  0  0
  -32.7683   34.5731   15.2480 O   0  0  0  0  0  0  0  0  0  0  0  0
  -33.9047   31.1298   11.4298 H   0  0  0  0  0  0  0  0  0  0  0  0
  -32.9566   29.6108   11.6319 H   0  0  0  0  0  0  0  0  0  0  0  0
  -31.3583   31.3277   15.6438 H   0  0  0  0  0  0  0  0  0  0  0  0
  -33.6504   34.4929   14.8045 H   0  0  0  0  0  0  0  0  0  0  0  0
  1  2  1  0
  2  3  2  0
  2  4  1  0
  5  4  1  6
  5  6  2  0
  5  7  1  0
  5  8  1  0
  1  9  1  0
  1 10  1  0
  7 11  1  0
  8 12  1  0
M  END
