7RZL_NPO_A_301
     RDKit          3D

 10 10  0  0  0  0  0  0  0  0999 V2000
   14.4856   -0.0546   55.9120 C   0  0  0  0  0  0  0  0  0  0  0  0
   15.6902    0.2211   56.5423 C   0  0  0  0  0  0  0  0  0  0  0  0
   16.0989    1.5304   56.6610 C   0  0  0  0  0  0  0  0  0  0  0  0
   15.3312    2.5556   56.1459 C   0  0  0  0  0  0  0  0  0  0  0  0
   14.1271    2.2838   55.5230 C   0  0  0  0  0  0  0  0  0  0  0  0
   13.6982    0.9755   55.3988 C   0  0  0  0  0  0  0  0  0  0  0  0
   15.7471    3.8366   56.2747 O   0  0  0  0  0  0  0  0  0  0  0  0
   14.0522   -1.3739   55.7818 N   0  0  0  0  0  0  0  0  0  0  0  0
   12.8627   -1.6090   55.1127 O   0  0  0  0  0  0  0  0  0  0  0  0
   14.6941   -2.3054   56.2416 O   0  0  0  0  0  0  0  0  0  0  0  0
  1  2  2  0
  2  3  1  0
  3  4  2  0
  4  5  1  0
  1  6  1  0
  5  6  2  0
  4  7  1  0
  1  8  1  0
  8  9  1  0
  8 10  2  0
M  CHG  2   8   1   9  -1
M  END
