7PA4_C_A_606
     RDKit          3D

 35 36  0  0  0  0  0  0  0  0999 V2000
   25.6044   27.9033   23.3476 O   0  0  0  0  0  0  0  0  0  0  0  0
   25.3754   26.7777   24.5899 P   0  0  1  0  0  5  0  0  0  0  0  0
   26.1089   25.5007   24.2430 O   0  0  0  0  0  0  0  0  0  0  0  0
   25.9956   27.4147   26.0310 O   0  0  0  0  0  0  0  0  0  0  0  0
   23.7066   26.4653   24.7528 O   0  0  0  0  0  0  0  0  0  0  0  0
   23.3280   26.7494   26.0792 C   0  0  2  0  0  0  0  0  0  0  0  0
   21.9211   27.3545   26.0789 C   0  0  1  0  0  0  0  0  0  0  0  0
   21.0938   26.6396   25.1892 O   0  0  0  0  0  0  0  0  0  0  0  0
   21.2806   27.3131   27.4620 C   0  0  1  0  0  0  0  0  0  0  0  0
   21.5919   28.4576   28.2147 O   0  0  0  0  0  0  0  0  0  0  0  0
   19.8054   27.2388   27.1376 C   0  0  1  0  0  0  0  0  0  0  0  0
   19.1814   28.5022   27.1826 O   0  0  0  0  0  0  0  0  0  0  0  0
   19.7807   26.6534   25.7166 C   0  0  2  0  0  0  0  0  0  0  0  0
   19.2211   25.2848   25.7288 N   0  0  0  0  0  0  0  0  0  0  0  0
   17.8878   25.0659   25.4801 C   0  0  0  0  0  0  0  0  0  0  0  0
   17.1141   26.0243   25.2114 O   0  0  0  0  0  0  0  0  0  0  0  0
   17.3800   23.8063   25.5260 N   0  0  0  0  0  0  0  0  0  0  0  0
   18.1588   22.7379   25.8295 C   0  0  0  0  0  0  0  0  0  0  0  0
   17.5887   21.4295   25.8666 N   0  0  0  0  0  0  0  0  0  0  0  0
   19.5088   22.9318   26.1127 C   0  0  0  0  0  0  0  0  0  0  0  0
   20.0221   24.2257   26.0645 C   0  0  0  0  0  0  0  0  0  0  0  0
   26.4830   28.3176   23.5412 H   0  0  0  0  0  0  0  0  0  0  0  0
   26.8709   27.8037   25.7793 H   0  0  0  0  0  0  0  0  0  0  0  0
   24.0281   27.4878   26.5311 H   0  0  0  0  0  0  0  0  0  0  0  0
   23.3156   25.8209   26.6951 H   0  0  0  0  0  0  0  0  0  0  0  0
   21.9867   28.4099   25.7275 H   0  0  0  0  0  0  0  0  0  0  0  0
   21.5736   26.3877   28.0136 H   0  0  0  0  0  0  0  0  0  0  0  0
   22.5377   28.3602   28.4985 H   0  0  0  0  0  0  0  0  0  0  0  0
   19.2909   26.5718   27.8648 H   0  0  0  0  0  0  0  0  0  0  0  0
   19.8190   29.1759   26.8265 H   0  0  0  0  0  0  0  0  0  0  0  0
   19.1743   27.3043   25.0478 H   0  0  0  0  0  0  0  0  0  0  0  0
   18.1828   20.5894   26.0458 H   0  0  0  0  0  0  0  0  0  0  0  0
   16.5643   21.2980   25.7132 H   0  0  0  0  0  0  0  0  0  0  0  0
   20.1504   22.0987   26.3708 H   0  0  0  0  0  0  0  0  0  0  0  0
   21.0681   24.3740   26.3015 H   0  0  0  0  0  0  0  0  0  0  0  0
  2  1  1  6
  2  3  2  0
  2  4  1  0
  2  5  1  0
  5  6  1  0
  7  6  1  0
  7  8  1  0
  7  9  1  0
  9 10  1  0
  9 11  1  0
 11 12  1  0
  8 13  1  0
 11 13  1  0
 13 14  1  0
 14 15  1  0
 15 16  2  0
 15 17  1  0
 17 18  2  0
 18 19  1  0
 18 20  1  0
 14 21  1  0
 20 21  2  0
  1 22  1  0
  4 23  1  0
  6 24  1  1
  6 25  1  0
  7 26  1  6
  9 27  1  1
 10 28  1  0
 11 29  1  1
 12 30  1  0
 13 31  1  6
 19 32  1  0
 19 33  1  0
 20 34  1  0
 21 35  1  0
M  END
