1N46_PFA_A_462
     RDKit          3D

 27 29  0  0  0  0  0  0  0  0999 V2000
   17.2666    5.1703    5.9362 O   0  0  0  0  0  0  0  0  0  0  0  0
   18.0847    4.2329    6.0352 C   0  0  0  0  0  0  0  0  0  0  0  0
   17.7843    3.2026    6.8692 N   0  0  0  0  0  0  0  0  0  0  0  0
   18.6327    2.1686    7.0109 C   0  0  0  0  0  0  0  0  0  0  0  0
   18.3790    1.1927    7.7823 O   0  0  0  0  0  0  0  0  0  0  0  0
   19.2283    4.2616    5.3256 N   0  0  0  0  0  0  0  0  0  0  0  0
   20.0776    3.2368    5.4610 N   0  0  0  0  0  0  0  0  0  0  0  0
   19.8106    2.1967    6.2810 C   0  0  0  0  0  0  0  0  0  0  0  0
   19.5647    5.3285    4.4466 C   0  0  0  0  0  0  0  0  0  0  0  0
   18.7864    5.4944    3.3157 C   0  0  0  0  0  0  0  0  0  0  0  0
   19.0202    6.4941    2.3947 C   0  0  0  0  0  0  0  0  0  0  0  0
   18.1667    6.6599    1.1738 C   0  0  0  0  0  0  0  0  0  0  0  0
   20.6199    6.1886    4.6766 C   0  0  0  0  0  0  0  0  0  0  0  0
   20.8669    7.2018    3.7552 C   0  0  0  0  0  0  0  0  0  0  0  0
   21.9856    8.1308    3.9784 C   0  0  0  0  0  0  0  0  0  0  0  0
   20.0849    7.3602    2.6289 C   0  0  0  0  0  0  0  0  0  0  0  0
   20.2898    8.3492    1.6862 O   0  0  0  0  0  0  0  0  0  0  0  0
   21.3129    8.2093    0.7667 C   0  0  0  0  0  0  0  0  0  0  0  0
   21.4463    7.1191   -0.0547 C   0  0  0  0  0  0  0  0  0  0  0  0
   22.2365    9.2510    0.7007 C   0  0  0  0  0  0  0  0  0  0  0  0
   23.2999    9.2065   -0.1890 C   0  0  0  0  0  0  0  0  0  0  0  0
   24.2466   10.3524   -0.2056 C   0  0  1  0  0  0  0  0  0  0  0  0
   23.4218   11.6128   -0.4057 C   0  0  0  0  0  0  0  0  0  0  0  0
   25.0475   10.3607    1.0575 C   0  0  0  0  0  0  0  0  0  0  0  0
   23.4375    8.1118   -1.0167 C   0  0  0  0  0  0  0  0  0  0  0  0
   22.5052    7.0727   -0.9420 C   0  0  0  0  0  0  0  0  0  0  0  0
   24.4955    8.0507   -1.9129 O   0  0  0  0  0  0  0  0  0  0  0  0
  1  2  2  0
  2  3  1  0
  3  4  1  0
  4  5  2  0
  2  6  1  0
  6  7  1  0
  4  8  1  0
  7  8  2  0
  6  9  1  0
  9 10  2  0
 10 11  1  0
 12 11  1  1
  9 13  1  0
 13 14  2  0
 15 14  1  1
 11 16  2  0
 14 16  1  0
 16 17  1  0
 17 18  1  0
 18 19  2  0
 18 20  1  0
 20 21  2  0
 22 21  1  1
 23 22  1  6
 24 22  1  1
 21 25  1  0
 19 26  1  0
 25 26  2  0
 25 27  1  0
M  END
$$$$
