8HO0_3ZI_A_402
     RDKit          3D

 38 41  0  0  0  0  0  0  0  0999 V2000
    0.4502    0.9273    0.3308 C   0  0  1  0  0  0  0  0  0  0  0  0
    2.1756   -1.5274   -2.9676 C   0  0  0  0  0  0  0  0  0  0  0  0
    0.2824   -2.4270   -1.7621 C   0  0  0  0  0  0  0  0  0  0  0  0
    1.0595   -1.3495   -2.1902 C   0  0  0  0  0  0  0  0  0  0  0  0
   -0.6535    2.9652    0.9394 O   0  0  0  0  0  0  0  0  0  0  0  0
   -2.9252    1.3798    1.9573 C   0  0  0  0  0  0  0  0  0  0  0  0
   -0.2065   -1.0216    1.8400 C   0  0  0  0  0  0  0  0  0  0  0  0
   -0.0659    0.7119   -1.1022 C   0  0  0  0  0  0  0  0  0  0  0  0
    0.9472    0.0079   -1.9579 C   0  0  0  0  0  0  0  0  0  0  0  0
    2.5868   -2.7963   -3.3757 C   0  0  0  0  0  0  0  0  0  0  0  0
    1.8203   -3.9023   -2.9649 C   0  0  0  0  0  0  0  0  0  0  0  0
    0.6740   -3.7180   -2.1605 C   0  0  0  0  0  0  0  0  0  0  0  0
   -0.5665    1.7190    1.1076 C   0  0  0  0  0  0  0  0  0  0  0  0
   -1.2327   -0.2225    2.5928 C   0  0  2  0  0  0  0  0  0  0  0  0
   -2.5906   -0.9115    2.7005 C   0  0  0  0  0  0  0  0  0  0  0  0
   -3.6070    0.2296    2.6928 C   0  0  0  0  0  0  0  0  0  0  0  0
    2.0297    0.5926   -2.6078 C   0  0  0  0  0  0  0  0  0  0  0  0
    3.6939   -2.9629   -4.1407 F   0  0  0  0  0  0  0  0  0  0  0  0
   -1.5130    1.0427    1.9400 N   0  0  0  0  0  0  0  0  0  0  0  0
    0.7235   -0.3656    0.9694 N   0  0  0  0  0  0  0  0  0  0  0  0
    2.7730   -0.3513   -3.2292 N   0  0  0  0  0  0  0  0  0  0  0  0
   -0.0826   -2.2554    2.0654 O   0  0  0  0  0  0  0  0  0  0  0  0
    1.3960    1.5123    0.2948 H   0  0  0  0  0  0  0  0  0  0  0  0
   -0.5912   -2.2816   -1.1403 H   0  0  0  0  0  0  0  0  0  0  0  0
   -3.0862    2.3450    2.4839 H   0  0  0  0  0  0  0  0  0  0  0  0
   -3.3073    1.4468    0.9151 H   0  0  0  0  0  0  0  0  0  0  0  0
   -1.0114    0.1272   -1.0812 H   0  0  0  0  0  0  0  0  0  0  0  0
   -0.2940    1.6955   -1.5683 H   0  0  0  0  0  0  0  0  0  0  0  0
    2.1122   -4.9009   -3.2634 H   0  0  0  0  0  0  0  0  0  0  0  0
    0.0939   -4.5759   -1.8463 H   0  0  0  0  0  0  0  0  0  0  0  0
   -0.8373   -0.0140    3.6109 H   0  0  0  0  0  0  0  0  0  0  0  0
   -2.7718   -1.5618    1.8152 H   0  0  0  0  0  0  0  0  0  0  0  0
   -2.6675   -1.5190    3.6283 H   0  0  0  0  0  0  0  0  0  0  0  0
   -3.8296    0.5351    3.7389 H   0  0  0  0  0  0  0  0  0  0  0  0
   -4.5512   -0.0729    2.1900 H   0  0  0  0  0  0  0  0  0  0  0  0
    2.2660    1.6487   -2.6142 H   0  0  0  0  0  0  0  0  0  0  0  0
    1.5612   -0.9037    0.6517 H   0  0  0  0  0  0  0  0  0  0  0  0
    3.6429   -0.1943   -3.7851 H   0  0  0  0  0  0  0  0  0  0  0  0
  2  4  1  0
  3  4  2  0
  1  8  1  0
  4  9  1  0
  8  9  1  0
  2 10  2  0
 10 11  1  0
 11 12  2  0
  3 12  1  0
  1 13  1  0
  5 13  2  0
  7 14  1  0
 14 15  1  0
  6 16  1  0
 15 16  1  0
  9 17  2  0
 10 18  1  0
 13 19  1  0
 14 19  1  0
  6 19  1  0
  1 20  1  0
  7 20  1  0
  2 21  1  0
 17 21  1  0
  7 22  2  0
  1 23  1  6
  3 24  1  0
  6 25  1  0
  6 26  1  0
  8 27  1  0
  8 28  1  0
 11 29  1  0
 12 30  1  0
 14 31  1  1
 15 32  1  0
 15 33  1  0
 16 34  1  0
 16 35  1  0
 17 36  1  0
 20 37  1  0
 21 38  1  0
M  END
