7P5T_5YG_A_402
     RDKit          3D

 23 25  0  0  0  0  0  0  0  0999 V2000
  -31.4091   -6.7428   -4.2311 C   0  0  0  0  0  0  0  0  0  0  0  0
  -32.0849   -5.3804   -6.7625 C   0  0  0  0  0  0  0  0  0  0  0  0
  -32.3187   -4.6926   -7.9369 C   0  0  0  0  0  0  0  0  0  0  0  0
  -31.2971   -4.1975   -8.7130 C   0  0  0  0  0  0  0  0  0  0  0  0
  -31.5410   -3.4606   -9.9709 C   0  0  0  0  0  0  0  0  0  0  0  0
  -32.8266   -3.7510  -12.1202 C   0  0  0  0  0  0  0  0  0  0  0  0
  -34.2186   -3.9845  -14.0734 C   0  0  0  0  0  0  0  0  0  0  0  0
  -33.8988   -2.4925  -16.0752 C   0  0  0  0  0  0  0  0  0  0  0  0
  -34.0238   -3.6378  -17.0120 C   0  0  0  0  0  0  0  0  0  0  0  0
  -33.8917   -4.9501  -16.6282 C   0  0  0  0  0  0  0  0  0  0  0  0
  -34.0373   -5.9051  -17.6282 C   0  0  0  0  0  0  0  0  0  0  0  0
  -34.4263   -4.3160  -19.3043 C   0  0  0  0  0  0  0  0  0  0  0  0
  -34.2896   -3.3256  -18.3432 C   0  0  0  0  0  0  0  0  0  0  0  0
  -32.1729   -2.7227  -12.7683 C   0  0  0  0  0  0  0  0  0  0  0  0
  -29.9985   -4.4100   -8.2792 C   0  0  0  0  0  0  0  0  0  0  0  0
  -30.7956   -5.5946   -6.3262 C   0  0  0  0  0  0  0  0  0  0  0  0
  -33.8722   -4.3965  -12.7864 C   0  0  0  0  0  0  0  0  0  0  0  0
  -33.5472   -2.9525  -14.6978 C   0  0  0  0  0  0  0  0  0  0  0  0
  -32.5084   -2.3059  -14.0451 C   0  0  0  0  0  0  0  0  0  0  0  0
  -29.7656   -5.1028   -7.0964 C   0  0  0  0  0  0  0  0  0  0  0  0
  -32.4747   -4.1745  -10.8046 N   0  0  0  0  0  0  0  0  0  0  0  0
  -34.2917   -5.6030  -18.9018 N   0  0  0  0  0  0  0  0  0  0  0  0
  -30.4703   -6.2692   -5.1688 O   0  0  0  0  0  0  0  0  0  0  0  0
  2  3  2  0
  3  4  1  0
  4  5  1  0
  8  9  1  6
  9 10  2  0
 10 11  1  0
 12 13  2  0
  9 13  1  0
  6 14  2  0
  4 15  2  0
  2 16  1  0
  7 17  2  0
  6 17  1  0
  8 18  1  0
  7 18  1  0
 18 19  2  0
 14 19  1  0
 15 20  1  0
 16 20  2  0
  6 21  1  0
  5 21  1  6
 11 22  2  0
 12 22  1  0
 16 23  1  0
  1 23  1  6
M  END
$$$$
