1IA1_TQ3_B_196
     RDKit          3D

 31 33  0  0  0  0  0  0  0  0999 V2000
   11.0864    1.9673    3.4876 C   0  0  0  0  0  0  0  0  0  0  0  0
   10.1366    2.3776    4.4610 C   0  0  0  0  0  0  0  0  0  0  0  0
   10.6012    2.4859    5.8007 C   0  0  0  0  0  0  0  0  0  0  0  0
   11.9244    2.3212    6.0651 N   0  0  0  0  0  0  0  0  0  0  0  0
   12.8163    2.0022    5.0964 C   0  0  0  0  0  0  0  0  0  0  0  0
   12.3898    1.8013    3.8271 N   0  0  0  0  0  0  0  0  0  0  0  0
    9.7198    2.6423    6.9145 N   0  0  0  0  0  0  0  0  0  0  0  0
   10.6985    1.7449    2.1636 C   0  0  0  0  0  0  0  0  0  0  0  0
    9.3782    1.9514    1.7758 C   0  0  0  0  0  0  0  0  0  0  0  0
    8.4476    2.4299    2.6948 C   0  0  0  0  0  0  0  0  0  0  0  0
    8.8135    2.6838    4.0247 C   0  0  0  0  0  0  0  0  0  0  0  0
   14.1947    1.8384    5.4207 N   0  0  0  0  0  0  0  0  0  0  0  0
    7.5931    3.5476    5.0322 S   0  0  0  0  0  0  0  0  0  0  0  0
    7.6818    2.3375    6.3535 C   0  0  0  0  0  0  0  0  0  0  0  0
    8.2468    1.0781    6.1137 C   0  0  0  0  0  0  0  0  0  0  0  0
    8.3093    0.1312    7.1410 C   0  0  0  0  0  0  0  0  0  0  0  0
    7.8118    0.4419    8.4105 C   0  0  0  0  0  0  0  0  0  0  0  0
    7.2535    1.7007    8.6540 C   0  0  0  0  0  0  0  0  0  0  0  0
    7.1903    2.6488    7.6282 C   0  0  0  0  0  0  0  0  0  0  0  0
   10.1021    2.9681    7.8299 H   0  0  0  0  0  0  0  0  0  0  0  0
    8.7958    2.1590    6.9335 H   0  0  0  0  0  0  0  0  0  0  0  0
   11.4239    1.4140    1.4304 H   0  0  0  0  0  0  0  0  0  0  0  0
    9.0832    1.7767    0.7491 H   0  0  0  0  0  0  0  0  0  0  0  0
    7.4413    2.6457    2.3577 H   0  0  0  0  0  0  0  0  0  0  0  0
   14.8847    1.5786    4.6812 H   0  0  0  0  0  0  0  0  0  0  0  0
   14.5274    1.9781    6.4005 H   0  0  0  0  0  0  0  0  0  0  0  0
    8.6325    0.8308    5.1329 H   0  0  0  0  0  0  0  0  0  0  0  0
    8.7427   -0.8426    6.9533 H   0  0  0  0  0  0  0  0  0  0  0  0
    7.8602   -0.2914    9.2050 H   0  0  0  0  0  0  0  0  0  0  0  0
    6.8704    1.9414    9.6373 H   0  0  0  0  0  0  0  0  0  0  0  0
    6.7585    3.6211    7.8254 H   0  0  0  0  0  0  0  0  0  0  0  0
  1  2  4  0
  2  3  4  0
  3  4  4  0
  4  5  4  0
  1  6  4  0
  5  6  4  0
  3  7  1  0
  1  8  4  0
  8  9  4  0
  9 10  4  0
  2 11  4  0
 10 11  4  0
  5 12  1  0
 11 13  1  0
 13 14  1  0
 14 15  4  0
 15 16  4  0
 16 17  4  0
 17 18  4  0
 14 19  4  0
 18 19  4  0
  7 20  1  0
  7 21  1  0
  8 22  1  0
  9 23  1  0
 10 24  1  0
 12 25  1  0
 12 26  1  0
 15 27  1  0
 16 28  1  0
 17 29  1  0
 18 30  1  0
 19 31  1  0
M  END
