
     RDKit          3D

 31 33  0  0  0  0  0  0  0  0999 V2000
  -41.6235   11.3520   -8.3817 P   0  0  0  0  0  5  0  0  0  0  0  0
  -40.8394   12.5820   -8.6935 O   0  0  0  0  0  0  0  0  0  0  0  0
  -42.8047   11.0070   -9.3946 O   0  0  0  0  0  0  0  0  0  0  0  0
  -40.7348   10.0314   -8.4980 O   0  0  0  0  0  0  0  0  0  0  0  0
  -41.4864   10.6521   -5.6816 P   0  0  2  0  0  5  0  0  0  0  0  0
  -41.6861    9.1742   -5.5507 O   0  0  0  0  0  0  0  0  0  0  0  0
  -42.1596   11.4251   -4.4444 O   0  0  0  0  0  0  0  0  0  0  0  0
  -42.2536   11.2943   -6.9245 O   0  0  0  0  0  0  0  0  0  0  0  0
  -38.6564   10.7326   -4.4603 P   0  0  1  0  0  5  0  0  0  0  0  0
  -37.8457    9.4966   -4.6674 O   0  0  0  0  0  0  0  0  0  0  0  0
  -37.7242   12.0173   -4.2148 O   0  0  0  0  0  0  0  0  0  0  0  0
  -39.7994   11.2004   -5.7288 C   0  0  0  0  0  0  0  0  0  0  0  0
  -39.5001   10.7348   -3.0846 O   0  0  0  0  0  0  0  0  0  0  0  0
  -38.7709   10.9090   -1.8739 C   0  0  0  0  0  0  0  0  0  0  0  0
  -39.7364   11.2434   -0.7421 C   0  0  1  0  0  0  0  0  0  0  0  0
  -40.3566   10.0576   -0.2308 O   0  0  0  0  0  0  0  0  0  0  0  0
  -39.0511   11.9177    0.4443 C   0  0  1  0  0  0  0  0  0  0  0  0
  -38.8699   13.3217    0.2627 O   0  0  0  0  0  0  0  0  0  0  0  0
  -40.0395   11.6431    1.5668 C   0  0  1  0  0  0  0  0  0  0  0  0
  -41.0655   12.6590    1.5421 O   0  0  0  0  0  0  0  0  0  0  0  0
  -40.6396   10.2842    1.1726 C   0  0  2  0  0  0  0  0  0  0  0  0
  -40.1851    9.1201    1.9033 N   0  0  0  0  0  0  0  0  0  0  0  0
  -39.1302    8.3287    1.5126 C   0  0  0  0  0  0  0  0  0  0  0  0
  -38.9120    7.3403    2.3538 N   0  0  0  0  0  0  0  0  0  0  0  0
  -39.8539    7.5141    3.3482 C   0  0  0  0  0  0  0  0  0  0  0  0
  -40.1313    6.7933    4.5224 C   0  0  0  0  0  0  0  0  0  0  0  0
  -39.4059    5.6773    4.9185 N   0  0  0  0  0  0  0  0  0  0  0  0
  -41.1667    7.1916    5.2966 N   0  0  0  0  0  0  0  0  0  0  0  0
  -41.8660    8.2816    4.9171 C   0  0  0  0  0  0  0  0  0  0  0  0
  -41.6881    9.0548    3.8251 N   0  0  0  0  0  0  0  0  0  0  0  0
  -40.6611    8.6104    3.0811 C   0  0  0  0  0  0  0  0  0  0  0  0
  1  2  2  0
  1  3  1  0
  1  4  1  0
  5  6  2  0
  5  7  1  1
  1  8  1  0
  5  8  1  0
  9 10  2  0
  9 11  1  1
  5 12  1  0
  9 12  1  0
  9 13  1  0
 13 14  1  0
 15 14  1  6
 15 16  1  0
 15 17  1  0
 17 18  1  6
 17 19  1  0
 19 20  1  6
 16 21  1  0
 19 21  1  0
 21 22  1  1
 22 23  4  0
 23 24  4  0
 24 25  4  0
 25 26  4  0
 26 27  1  0
 26 28  4  0
 28 29  4  0
 29 30  4  0
 22 31  4  0
 25 31  4  0
 30 31  4  0
M  END
