7W6F_8I6_A_201
     RDKit          3D

 44 44  0  0  0  0  0  0  0  0999 V2000
   -0.4445    0.7547   -1.6320 C   0  0  0  0  0  0  0  0  0  0  0  0
   -2.4953   -0.5842   -1.6464 C   0  0  0  0  0  0  0  0  0  0  0  0
   -1.2496   -0.2518   -2.2329 C   0  0  0  0  0  0  0  0  0  0  0  0
   -2.2183   -1.4356    3.3182 C   0  0  0  0  0  0  0  0  0  0  0  0
   -0.8139   -1.9126    2.9607 C   0  0  0  0  0  0  0  0  0  0  0  0
    0.1299   -0.7267    2.7140 C   0  0  0  0  0  0  0  0  0  0  0  0
    1.5946   -1.1554    2.5180 C   0  0  0  0  0  0  0  0  0  0  0  0
    1.8427   -2.1094    1.3327 C   0  0  0  0  0  0  0  0  0  0  0  0
    1.4137   -1.5636   -0.0409 C   0  0  0  0  0  0  0  0  0  0  0  0
    2.2245   -0.3271   -0.4702 C   0  0  0  0  0  0  0  0  0  0  0  0
    1.9923    0.0433   -1.9500 C   0  0  0  0  0  0  0  0  0  0  0  0
    0.9251    1.1323   -2.1632 C   0  0  0  0  0  0  0  0  0  0  0  0
   -0.9082    1.4048   -0.4748 C   0  0  0  0  0  0  0  0  0  0  0  0
   -2.1360    1.0693    0.0927 C   0  0  0  0  0  0  0  0  0  0  0  0
   -2.9200    0.0713   -0.4880 C   0  0  0  0  0  0  0  0  0  0  0  0
   -0.7934   -0.9730   -3.4378 C   0  0  0  0  0  0  0  0  0  0  0  0
   -2.5663    1.7336    1.2394 O   0  0  0  0  0  0  0  0  0  0  0  0
   -3.3471   -1.5428   -2.2013 O   0  0  0  0  0  0  0  0  0  0  0  0
   -0.4937   -0.3388   -4.4843 O   0  0  0  0  0  0  0  0  0  0  0  0
   -0.6913   -2.3608   -3.4177 O   0  0  0  0  0  0  0  0  0  0  0  0
   -2.1944   -0.8117    4.2368 H   0  0  0  0  0  0  0  0  0  0  0  0
   -2.8730   -2.3133    3.5024 H   0  0  0  0  0  0  0  0  0  0  0  0
   -2.6476   -0.8445    2.4828 H   0  0  0  0  0  0  0  0  0  0  0  0
   -0.8835   -2.5396    2.0467 H   0  0  0  0  0  0  0  0  0  0  0  0
   -0.4236   -2.5374    3.7933 H   0  0  0  0  0  0  0  0  0  0  0  0
    0.0926   -0.0474    3.5937 H   0  0  0  0  0  0  0  0  0  0  0  0
   -0.2153   -0.1407    1.8396 H   0  0  0  0  0  0  0  0  0  0  0  0
    2.2207   -0.2461    2.3975 H   0  0  0  0  0  0  0  0  0  0  0  0
    1.9445   -1.6565    3.4468 H   0  0  0  0  0  0  0  0  0  0  0  0
    2.9275   -2.3509    1.2994 H   0  0  0  0  0  0  0  0  0  0  0  0
    1.3193   -3.0714    1.5167 H   0  0  0  0  0  0  0  0  0  0  0  0
    0.3283   -1.3423   -0.0419 H   0  0  0  0  0  0  0  0  0  0  0  0
    1.5767   -2.3762   -0.7821 H   0  0  0  0  0  0  0  0  0  0  0  0
    3.3053   -0.5539   -0.3374 H   0  0  0  0  0  0  0  0  0  0  0  0
    1.9849    0.5383    0.1840 H   0  0  0  0  0  0  0  0  0  0  0  0
    1.7584   -0.8574   -2.5552 H   0  0  0  0  0  0  0  0  0  0  0  0
    2.9472    0.4416   -2.3578 H   0  0  0  0  0  0  0  0  0  0  0  0
    0.8526    1.3653   -3.2453 H   0  0  0  0  0  0  0  0  0  0  0  0
    1.2831    2.0714   -1.6866 H   0  0  0  0  0  0  0  0  0  0  0  0
   -0.3067    2.1691    0.0022 H   0  0  0  0  0  0  0  0  0  0  0  0
   -3.8737   -0.1889   -0.0458 H   0  0  0  0  0  0  0  0  0  0  0  0
   -3.4540    1.5161    1.6768 H   0  0  0  0  0  0  0  0  0  0  0  0
   -3.1625   -2.0085   -3.0800 H   0  0  0  0  0  0  0  0  0  0  0  0
   -0.3771   -2.8705   -4.2347 H   0  0  0  0  0  0  0  0  0  0  0  0
  2  3  1  0
  1  3  2  0
  4  5  1  0
  5  6  1  0
  6  7  1  0
  7  8  1  0
  8  9  1  0
  9 10  1  0
 10 11  1  0
  1 12  1  0
 11 12  1  0
  1 13  1  0
 13 14  2  0
  2 15  2  0
 14 15  1  0
  3 16  1  0
 14 17  1  0
  2 18  1  0
 16 19  2  0
 16 20  1  0
  4 21  1  0
  4 22  1  0
  4 23  1  0
  5 24  1  0
  5 25  1  0
  6 26  1  0
  6 27  1  0
  7 28  1  0
  7 29  1  0
  8 30  1  0
  8 31  1  0
  9 32  1  0
  9 33  1  0
 10 34  1  0
 10 35  1  0
 11 36  1  0
 11 37  1  0
 12 38  1  0
 12 39  1  0
 13 40  1  0
 15 41  1  0
 17 42  1  0
 18 43  1  0
 20 44  1  0
M  END
