7W6F_8I6_A_201
     RDKit          3D

 20 20  0  0  0  0  0  0  0  0999 V2000
    8.9260    5.2160   13.4160 C   0  0  0  0  0  0  0  0  0  0  0  0
    9.4260    4.3470   11.2510 C   0  0  0  0  0  0  0  0  0  0  0  0
    9.8590    4.9310   12.4270 C   0  0  0  0  0  0  0  0  0  0  0  0
   12.9690   14.9170   17.5520 C   0  0  0  0  0  0  0  0  0  0  0  0
   11.8120   14.1140   16.9680 C   0  0  0  0  0  0  0  0  0  0  0  0
   11.8760   12.6260   17.3010 C   0  0  0  0  0  0  0  0  0  0  0  0
   10.9780   11.8840   16.3140 C   0  0  0  0  0  0  0  0  0  0  0  0
   10.9800   10.3680   16.5060 C   0  0  0  0  0  0  0  0  0  0  0  0
   10.0890    9.6510   15.4790 C   0  0  0  0  0  0  0  0  0  0  0  0
   10.0740    8.1330   15.6640 C   0  0  0  0  0  0  0  0  0  0  0  0
    9.3490    7.3950   14.5360 C   0  0  0  0  0  0  0  0  0  0  0  0
    9.3100    5.8750   14.7340 C   0  0  0  0  0  0  0  0  0  0  0  0
    7.5950    4.9370   13.2000 C   0  0  0  0  0  0  0  0  0  0  0  0
    7.1890    4.3590   12.0190 C   0  0  0  0  0  0  0  0  0  0  0  0
    8.1000    4.0610   11.0390 C   0  0  0  0  0  0  0  0  0  0  0  0
   11.3550    5.1960   12.5750 C   0  0  0  0  0  0  0  0  0  0  0  0
    5.8440    4.0720   11.8240 O   0  0  0  0  0  0  0  0  0  0  0  0
   10.3210    4.0410   10.2380 O   0  0  0  0  0  0  0  0  0  0  0  0
   12.0840    5.2550   11.5510 O   0  0  0  0  0  0  0  0  0  0  0  0
   11.8700    5.2950   13.7170 O   0  0  0  0  0  0  0  0  0  0  0  0
  2  3  1  0
  1  3  2  0
  4  5  1  0
  5  6  1  0
  6  7  1  0
  7  8  1  0
  8  9  1  0
  9 10  1  0
 10 11  1  0
  1 12  1  0
 11 12  1  0
  1 13  1  0
 13 14  2  0
  2 15  2  0
 14 15  1  0
  3 16  1  0
 14 17  1  0
  2 18  1  0
 16 19  2  0
 16 20  1  0
M  END
$$$$
