6XAF_GDP_B_1602
     RDKit          3D

 43 45  0  0  0  0  0  0  0  0999 V2000
   -1.5524   -0.7115    3.3286 P   0  0  0  0  0  5  0  0  0  0  0  0
   -1.9374    0.4135    4.2629 O   0  0  0  0  0  0  0  0  0  0  0  0
   -2.6767   -1.9649    3.4890 O   0  0  0  0  0  0  0  0  0  0  0  0
   -1.5840   -0.1527    1.7308 O   0  0  0  0  0  0  0  0  0  0  0  0
   -0.0126   -1.3008    3.7550 O   0  0  0  0  0  0  0  0  0  0  0  0
    1.1530   -0.2461    3.0963 P   0  0  1  0  0  5  0  0  0  0  0  0
    0.7969    1.1972    3.3809 O   0  0  0  0  0  0  0  0  0  0  0  0
    2.6515   -0.5759    3.8116 O   0  0  0  0  0  0  0  0  0  0  0  0
    1.2711   -0.4728    1.4102 O   0  0  0  0  0  0  0  0  0  0  0  0
    1.6200   -1.8170    1.1703 C   0  0  0  0  0  0  0  0  0  0  0  0
    1.8178   -2.0539   -0.3342 C   0  0  1  0  0  0  0  0  0  0  0  0
    0.6086   -1.8053   -1.0166 O   0  0  0  0  0  0  0  0  0  0  0  0
    2.9217   -1.1754   -0.9279 C   0  0  1  0  0  0  0  0  0  0  0  0
    3.7029   -1.9003   -1.8515 O   0  0  0  0  0  0  0  0  0  0  0  0
    2.1525   -0.0552   -1.5888 C   0  0  1  0  0  0  0  0  0  0  0  0
    2.7848    0.3602   -2.7736 O   0  0  0  0  0  0  0  0  0  0  0  0
    0.7815   -0.6860   -1.8643 C   0  0  2  0  0  0  0  0  0  0  0  0
   -0.3296    0.2584   -1.6636 N   0  0  0  0  0  0  0  0  0  0  0  0
   -0.3570    1.6076   -1.8553 C   0  0  0  0  0  0  0  0  0  0  0  0
   -1.5942    2.1554   -1.7040 N   0  0  0  0  0  0  0  0  0  0  0  0
   -2.3593    1.0850   -1.4290 C   0  0  0  0  0  0  0  0  0  0  0  0
   -3.7244    1.0165   -1.1928 C   0  0  0  0  0  0  0  0  0  0  0  0
   -4.4394    2.0538   -1.1958 O   0  0  0  0  0  0  0  0  0  0  0  0
   -4.2733   -0.2139   -0.9557 N   0  0  0  0  0  0  0  0  0  0  0  0
   -3.4969   -1.3498   -0.9590 C   0  0  0  0  0  0  0  0  0  0  0  0
   -4.0880   -2.6240   -0.7061 N   0  0  0  0  0  0  0  0  0  0  0  0
   -2.1523   -1.2654   -1.1976 N   0  0  0  0  0  0  0  0  0  0  0  0
   -1.6147   -0.0415   -1.4212 C   0  0  0  0  0  0  0  0  0  0  0  0
   -2.4050   -2.6331    2.8101 H   0  0  0  0  0  0  0  0  0  0  0  0
   -2.5102    0.1706    1.5959 H   0  0  0  0  0  0  0  0  0  0  0  0
    2.4849   -0.5159    4.7859 H   0  0  0  0  0  0  0  0  0  0  0  0
    2.5685   -2.0870    1.6887 H   0  0  0  0  0  0  0  0  0  0  0  0
    0.8100   -2.4960    1.5214 H   0  0  0  0  0  0  0  0  0  0  0  0
    2.0807   -3.1268   -0.4675 H   0  0  0  0  0  0  0  0  0  0  0  0
    3.6003   -0.7699   -0.1447 H   0  0  0  0  0  0  0  0  0  0  0  0
    3.0962   -2.2802   -2.5409 H   0  0  0  0  0  0  0  0  0  0  0  0
    2.0722    0.7922   -0.8685 H   0  0  0  0  0  0  0  0  0  0  0  0
    2.3443    1.2012   -3.0573 H   0  0  0  0  0  0  0  0  0  0  0  0
    0.7467   -1.0481   -2.9156 H   0  0  0  0  0  0  0  0  0  0  0  0
    0.5082    2.2013   -2.1116 H   0  0  0  0  0  0  0  0  0  0  0  0
   -5.2994   -0.2900   -0.7714 H   0  0  0  0  0  0  0  0  0  0  0  0
   -3.4991   -3.4861   -0.7013 H   0  0  0  0  0  0  0  0  0  0  0  0
   -5.1115   -2.7096   -0.5185 H   0  0  0  0  0  0  0  0  0  0  0  0
  1  2  2  0
  1  3  1  0
  1  4  1  0
  1  5  1  0
  6  5  1  1
  6  7  2  0
  6  8  1  0
  6  9  1  0
  9 10  1  0
 11 10  1  0
 11 12  1  0
 11 13  1  0
 13 14  1  0
 13 15  1  0
 15 16  1  0
 12 17  1  0
 15 17  1  0
 17 18  1  0
 18 19  1  0
 19 20  2  0
 20 21  1  0
 21 22  1  0
 22 23  2  0
 22 24  1  0
 24 25  1  0
 25 26  1  0
 25 27  2  0
 18 28  1  0
 21 28  2  0
 27 28  1  0
  3 29  1  0
  4 30  1  0
  8 31  1  0
 10 32  1  0
 10 33  1  0
 11 34  1  1
 13 35  1  1
 14 36  1  0
 15 37  1  1
 16 38  1  0
 17 39  1  6
 19 40  1  0
 24 41  1  0
 26 42  1  0
 26 43  1  0
M  END
