7ODY_DGI_A_201
     RDKit          3D

 42 44  0  0  0  0  0  0  0  0999 V2000
    4.6828   -4.3092  -30.5869 O   0  0  0  0  0  0  0  0  0  0  0  0
    3.7736   -3.7706  -31.6344 P   0  0  2  0  0  5  0  0  0  0  0  0
    2.7791   -4.7567  -32.1718 O   0  0  0  0  0  0  0  0  0  0  0  0
    4.5172   -3.2053  -32.8462 O   0  0  0  0  0  0  0  0  0  0  0  0
    2.9050   -2.6034  -30.9607 O   0  0  0  0  0  0  0  0  0  0  0  0
    2.4727   -2.1063  -29.5089 P   0  0  1  0  0  5  0  0  0  0  0  0
    1.1535   -1.6032  -29.9283 O   0  0  0  0  0  0  0  0  0  0  0  0
    2.6004   -3.4105  -28.7924 O   0  0  0  0  0  0  0  0  0  0  0  0
    3.7412   -1.2129  -29.6085 O   0  0  0  0  0  0  0  0  0  0  0  0
    5.0843   -1.6515  -29.3029 C   0  0  0  0  0  0  0  0  0  0  0  0
    6.0953   -0.5980  -29.6740 C   0  0  2  0  0  0  0  0  0  0  0  0
    6.5765    0.0470  -28.4731 O   0  0  0  0  0  0  0  0  0  0  0  0
    5.5363    0.5043  -30.5763 C   0  0  2  0  0  0  0  0  0  0  0  0
    6.4457    0.8195  -31.6313 O   0  0  0  0  0  0  0  0  0  0  0  0
    5.3959    1.6966  -29.6399 C   0  0  0  0  0  0  0  0  0  0  0  0
    6.4813    1.4482  -28.6066 C   0  0  1  0  0  0  0  0  0  0  0  0
    6.1602    2.0024  -27.2838 N   0  0  0  0  0  4  0  0  0  0  0  0
    7.0022    2.6008  -26.3876 C   0  0  0  0  0  0  0  0  0  0  0  0
    6.4013    2.9690  -25.2784 N   0  0  0  0  0  0  0  0  0  0  0  0
    5.0808    2.5916  -25.4655 C   0  0  0  0  0  0  0  0  0  0  0  0
    4.9236    1.9903  -26.6958 C   0  0  0  0  0  0  0  0  0  0  0  0
    3.8098    1.4617  -27.2273 N   0  0  0  0  0  0  0  0  0  0  0  0
    2.7631    1.5573  -26.4180 C   0  0  0  0  0  0  0  0  0  0  0  0
    1.6002    1.0130  -26.7783 N   0  0  0  0  0  0  0  0  0  0  0  0
    2.8180    2.1529  -25.1849 N   0  0  0  0  0  4  0  0  0  0  0  0
    3.9436    2.7161  -24.6207 C   0  0  0  0  0  0  0  0  0  0  0  0
    3.8907    3.2671  -23.5205 O   0  0  0  0  0  0  0  0  0  0  0  0
    3.2493   -5.4921  -32.5949 H   0  0  0  0  0  0  0  0  0  0  0  0
    5.0448   -3.9073  -33.2582 H   0  0  0  0  0  0  0  0  0  0  0  0
    1.7455   -3.8687  -28.8002 H   0  0  0  0  0  0  0  0  0  0  0  0
    5.1567   -1.8516  -28.2543 H   0  0  0  0  0  0  0  0  0  0  0  0
    5.2907   -2.5356  -29.8691 H   0  0  0  0  0  0  0  0  0  0  0  0
    6.8674   -1.1107  -30.2087 H   0  0  0  0  0  0  0  0  0  0  0  0
    4.6185    0.2184  -31.0462 H   0  0  0  0  0  0  0  0  0  0  0  0
    7.2985    1.0864  -31.2540 H   0  0  0  0  0  0  0  0  0  0  0  0
    5.5634    2.6163  -30.1604 H   0  0  0  0  0  0  0  0  0  0  0  0
    4.4189    1.7848  -29.2127 H   0  0  0  0  0  0  0  0  0  0  0  0
    7.3838    1.9203  -28.9346 H   0  0  0  0  0  0  0  0  0  0  0  0
    8.0082    2.7485  -26.5644 H   0  0  0  0  0  0  0  0  0  0  0  0
    1.5129    0.5739  -27.6551 H   0  0  0  0  0  0  0  0  0  0  0  0
    0.8290    1.0504  -26.1674 H   0  0  0  0  0  0  0  0  0  0  0  0
    1.9862    2.1810  -24.6590 H   0  0  0  0  0  0  0  0  0  0  0  0
  1  2  2  0
  2  3  1  1
  2  4  1  0
  2  5  1  0
  6  5  1  1
  6  7  2  0
  6  8  1  0
  6  9  1  0
  9 10  1  0
 11 10  1  0
 11 12  1  0
 11 13  1  0
 13 14  1  0
 13 15  1  0
 12 16  1  0
 15 16  1  0
 16 17  1  0
 17 18  4  0
 18 19  4  0
 19 20  4  0
 17 21  4  0
 20 21  4  0
 21 22  4  0
 22 23  4  0
 23 24  1  0
 23 25  4  0
 20 26  4  0
 25 26  4  0
 26 27  2  0
  3 28  1  0
  4 29  1  0
  8 30  1  0
 10 31  1  0
 10 32  1  0
 11 33  1  1
 13 34  1  1
 14 35  1  0
 15 36  1  0
 15 37  1  0
 16 38  1  1
 18 39  1  0
 24 40  1  0
 24 41  1  0
 25 42  1  0
M  CHG  2  17   1  25   1
M  END
