8D39_QDB_A_501
     RDKit          3D

 27 28  0  0  0  0  0  0  0  0999 V2000
    0.1373    4.1979   29.3938 C   0  0  0  0  0  0  0  0  0  0  0  0
   -0.4538    3.3329   28.4701 C   0  0  0  0  0  0  0  0  0  0  0  0
    0.0577    3.2362   27.1723 C   0  0  0  0  0  0  0  0  0  0  0  0
    1.1634    4.0157   26.7829 C   0  0  0  0  0  0  0  0  0  0  0  0
    1.7607    4.8706   27.7268 C   0  0  0  0  0  0  0  0  0  0  0  0
    1.2451    4.9638   29.0233 C   0  0  0  0  0  0  0  0  0  0  0  0
    1.7291    3.9102   25.4158 C   0  0  0  0  0  0  0  0  0  0  0  0
    0.8957    3.5774   24.2348 C   0  0  0  0  0  0  0  0  0  0  0  0
   -0.4626    3.9346   24.1831 C   0  0  0  0  0  0  0  0  0  0  0  0
   -1.2339    3.6312   23.0577 C   0  0  0  0  0  0  0  0  0  0  0  0
   -0.6603    2.9738   21.9557 C   0  0  0  0  0  0  0  0  0  0  0  0
    0.7015    2.6320   22.0009 C   0  0  0  0  0  0  0  0  0  0  0  0
    1.4725    2.9361   23.1266 C   0  0  0  0  0  0  0  0  0  0  0  0
   -1.4729    2.6499   20.7624 C   0  0  0  0  0  0  0  0  0  0  0  0
    2.9638    4.1106   25.2516 O   0  0  0  0  0  0  0  0  0  0  0  0
   -1.7010    3.5285   19.8872 O   0  0  0  0  0  0  0  0  0  0  0  0
   -1.9946    1.3696   20.5948 O   0  0  0  0  0  0  0  0  0  0  0  0
   -0.2595    4.2705   30.3981 H   0  0  0  0  0  0  0  0  0  0  0  0
   -1.3055    2.7318   28.7614 H   0  0  0  0  0  0  0  0  0  0  0  0
   -0.4011    2.5419   26.4798 H   0  0  0  0  0  0  0  0  0  0  0  0
    2.6186    5.4742   27.4575 H   0  0  0  0  0  0  0  0  0  0  0  0
    1.7056    5.6300   29.7414 H   0  0  0  0  0  0  0  0  0  0  0  0
   -0.9261    4.4625   25.0070 H   0  0  0  0  0  0  0  0  0  0  0  0
   -2.2783    3.9172   23.0490 H   0  0  0  0  0  0  0  0  0  0  0  0
    1.1739    2.1294   21.1661 H   0  0  0  0  0  0  0  0  0  0  0  0
    2.5196    2.6588   23.1360 H   0  0  0  0  0  0  0  0  0  0  0  0
   -2.4374    1.0980   19.7250 H   0  0  0  0  0  0  0  0  0  0  0  0
  1  2  2  0
  2  3  1  0
  3  4  2  0
  4  5  1  0
  5  6  2  0
  1  6  1  0
  4  7  1  0
  7  8  1  0
  8  9  2  0
  9 10  1  0
 10 11  2  0
 11 12  1  0
 12 13  2  0
  8 13  1  0
 11 14  1  0
  7 15  2  0
 14 16  2  0
 14 17  1  0
  1 18  1  0
  2 19  1  0
  3 20  1  0
  5 21  1  0
  6 22  1  0
  9 23  1  0
 10 24  1  0
 12 25  1  0
 13 26  1  0
 17 27  1  0
M  END
