6Z0R_Q4H_A_301
     RDKit          3D

 13 13  0  0  0  0  0  0  0  0999 V2000
   44.7139    9.2422   66.7498 N   0  0  0  0  0  0  0  0  0  0  0  0
   43.9972    8.3826   66.4552 C   0  0  0  0  0  0  0  0  0  0  0  0
   43.1047    7.3111   66.0886 C   0  0  0  0  0  0  0  0  0  0  0  0
   43.1959    6.0804   66.7453 C   0  0  0  0  0  0  0  0  0  0  0  0
   42.3600    5.0652   66.4075 N   0  0  0  0  0  0  0  0  0  0  0  0
   41.4276    5.2243   65.4339 C   0  0  0  0  0  0  0  0  0  0  0  0
   41.3198    6.4105   64.7817 N   0  0  0  0  0  0  0  0  0  0  0  0
   42.1325    7.4590   65.0818 C   0  0  0  0  0  0  0  0  0  0  0  0
   41.9766    8.6875   64.3637 N   0  0  0  0  0  0  0  0  0  0  0  0
   43.9305    5.9257   67.5259 H   0  0  0  0  0  0  0  0  0  0  0  0
   40.7698    4.4054   65.1771 H   0  0  0  0  0  0  0  0  0  0  0  0
   42.5751    9.5206   64.5566 H   0  0  0  0  0  0  0  0  0  0  0  0
   41.2462    8.7675   63.6217 H   0  0  0  0  0  0  0  0  0  0  0  0
  1  2  3  0
  2  3  1  0
  3  4  2  0
  4  5  1  0
  5  6  2  0
  6  7  1  0
  7  8  2  0
  3  8  1  0
  8  9  1  0
  4 10  1  0
  6 11  1  0
  9 12  1  0
  9 13  1  0
M  END
