6YMS_OZH_E_409
     RDKit          3D

 35 36  0  0  0  0  0  0  0  0999 V2000
   33.1130   39.8560  -11.7880 O   0  0  0  0  0  0  0  0  0  0  0  0
   38.0280   38.7170   -3.5050 O   0  0  0  0  0  0  0  0  0  0  0  0
   30.4080   36.4950   -8.4030 C   0  0  0  0  0  0  0  0  0  0  0  0
   31.8290   36.9890   -8.6220 C   0  0  0  0  0  0  0  0  0  0  0  0
   32.6670   35.9320   -9.3220 C   0  0  0  0  0  0  0  0  0  0  0  0
   36.1050   41.6920   -4.0450 C   0  0  1  0  0  0  0  0  0  0  0  0
   33.7690   39.3440   -8.3130 N   0  0  0  0  0  0  0  0  0  0  0  0
   35.1850   39.1070   -6.3510 C   0  0  0  0  0  0  0  0  0  0  0  0
   34.7200   38.6240   -7.7110 C   0  0  0  0  0  0  0  0  0  0  0  0
   33.2070   38.9340   -9.5910 C   0  0  1  0  0  0  0  0  0  0  0  0
   31.8280   38.2940   -9.4090 C   0  0  0  0  0  0  0  0  0  0  0  0
   35.2080   37.6160   -8.2120 O   0  0  0  0  0  0  0  0  0  0  0  0
   35.2700   42.2000   -2.8560 C   0  0  0  0  0  0  0  0  0  0  0  0
   36.1360   42.3410   -1.6290 C   0  0  0  0  0  0  0  0  0  0  0  0
   37.0290   41.4490    0.4240 C   0  0  0  0  0  0  0  0  0  0  0  0
   36.2030   41.3300   -0.6810 C   0  0  0  0  0  0  0  0  0  0  0  0
   37.7950   42.5800    0.5970 C   0  0  0  0  0  0  0  0  0  0  0  0
   39.5190   37.0510   -2.6370 C   0  0  0  0  0  0  0  0  0  0  0  0
   40.6540   36.2560   -2.6630 C   0  0  0  0  0  0  0  0  0  0  0  0
   39.3900   38.2250   -3.5590 C   0  0  0  0  0  0  0  0  0  0  0  0
   37.8630   40.0260   -3.7640 C   0  0  0  0  0  0  0  0  0  0  0  0
   36.9080   43.4770   -1.4370 C   0  0  0  0  0  0  0  0  0  0  0  0
   37.7320   43.5950   -0.3310 C   0  0  0  0  0  0  0  0  0  0  0  0
   33.1110   40.1170  -10.5660 C   0  0  0  0  0  0  0  0  0  0  0  0
   36.0450   41.9820   -6.6900 O   0  0  0  0  0  0  0  0  0  0  0  0
   40.7830   35.1820   -1.8010 C   0  0  0  0  0  0  0  0  0  0  0  0
   39.7830   34.8920   -0.9000 C   0  0  0  0  0  0  0  0  0  0  0  0
   38.6480   35.6690   -0.8680 C   0  0  0  0  0  0  0  0  0  0  0  0
   33.9830   42.7850   -5.3900 O   0  0  0  0  0  0  0  0  0  0  0  0
   38.7700   40.8150   -3.9240 O   0  0  0  0  0  0  0  0  0  0  0  0
   38.5140   36.7420   -1.7310 C   0  0  0  0  0  0  0  0  0  0  0  0
   34.4150   40.2080   -5.7790 N   0  0  0  0  0  0  0  0  0  0  0  0
   36.5580   40.3270   -3.8230 N   0  0  0  0  0  0  0  0  0  0  0  0
   33.0320   41.2670  -10.0690 O   0  0  0  0  0  0  0  0  0  0  0  0
   35.0430   41.7600   -5.6420 P   0  0  2  0  0  0  0  0  0  0  0  0
  3  4  1  0
  4  5  1  0
  7  9  1  0
  8  9  1  0
  7 10  1  0
 10 11  1  1
  4 11  1  0
  9 12  2  0
  6 13  1  1
 13 14  1  0
 14 16  1  0
 15 16  2  0
 15 17  1  0
 18 19  2  0
  2 20  1  0
 18 20  1  0
  2 21  1  0
 14 22  2  0
 22 23  1  0
 17 23  2  0
  1 24  2  0
 10 24  1  0
 19 26  1  0
 26 27  2  0
 27 28  1  0
 21 30  2  0
 18 31  1  0
 28 31  2  0
  8 32  1  0
  6 33  1  0
 21 33  1  0
 24 34  1  0
 25 35  2  0
 32 35  1  0
 35 29  1  1
  6 35  1  0
M  END
$$$$
