6YMS_OZH_E_409
     RDKit          3D

 67 68  0  0  0  0  0  0  0  0999 V2000
    1.3113   -6.0485    0.0175 O   0  0  0  0  0  0  0  0  0  0  0  0
    0.8910    2.8582    0.4718 O   0  0  0  0  0  0  0  0  0  0  0  0
    2.7680   -4.1088    2.6716 C   0  0  0  0  0  0  0  0  0  0  0  0
    3.0478   -2.8288    1.8765 C   0  0  0  0  0  0  0  0  0  0  0  0
    1.9539   -1.7792    2.1215 C   0  0  0  0  0  0  0  0  0  0  0  0
   -2.5031    1.2339   -0.0995 C   0  0  1  0  0  0  0  0  0  0  0  0
    0.9506   -3.3552   -0.3346 N   0  0  0  0  0  0  0  0  0  0  0  0
   -0.8759   -1.6831   -0.9259 C   0  0  0  0  0  0  0  0  0  0  0  0
    0.5469   -2.1485   -1.0015 C   0  0  0  0  0  0  0  0  0  0  0  0
    2.3093   -3.8994   -0.4556 C   0  0  1  0  0  0  0  0  0  0  0  0
    3.3354   -3.0792    0.3701 C   0  0  0  0  0  0  0  0  0  0  0  0
    1.3852   -1.4704   -1.6551 O   0  0  0  0  0  0  0  0  0  0  0  0
   -3.7080    2.1342    0.2256 C   0  0  0  0  0  0  0  0  0  0  0  0
   -4.9436    1.7413   -0.5442 C   0  0  0  0  0  0  0  0  0  0  0  0
   -7.1248    0.6720   -0.6342 C   0  0  0  0  0  0  0  0  0  0  0  0
   -5.9894    1.0483    0.0896 C   0  0  0  0  0  0  0  0  0  0  0  0
   -7.2246    0.9830   -1.9929 C   0  0  0  0  0  0  0  0  0  0  0  0
    2.9804    2.2327   -0.5484 C   0  0  0  0  0  0  0  0  0  0  0  0
    3.7136    1.5669    0.4467 C   0  0  0  0  0  0  0  0  0  0  0  0
    2.0592    3.3603   -0.1735 C   0  0  0  0  0  0  0  0  0  0  0  0
   -0.1630    2.2449   -0.2137 C   0  0  0  0  0  0  0  0  0  0  0  0
   -5.0515    2.0492   -1.9109 C   0  0  0  0  0  0  0  0  0  0  0  0
   -6.1888    1.6711   -2.6305 C   0  0  0  0  0  0  0  0  0  0  0  0
    2.3655   -5.3780   -0.1465 C   0  0  0  0  0  0  0  0  0  0  0  0
   -3.7677   -1.1868   -0.3533 O   0  0  0  0  0  0  0  0  0  0  0  0
    4.5825    0.5272    0.1036 C   0  0  0  0  0  0  0  0  0  0  0  0
    4.7165    0.1388   -1.2321 C   0  0  0  0  0  0  0  0  0  0  0  0
    3.9737    0.7822   -2.2252 C   0  0  0  0  0  0  0  0  0  0  0  0
   -3.3044   -0.4362    2.1045 O   0  0  0  0  0  0  0  0  0  0  0  0
   -0.1152    2.1043   -1.4671 O   0  0  0  0  0  0  0  0  0  0  0  0
    3.1066    1.8251   -1.8865 C   0  0  0  0  0  0  0  0  0  0  0  0
   -1.2141   -1.3379    0.4569 N   0  0  0  0  0  0  0  0  0  0  0  0
   -1.3021    1.7901    0.5271 N   0  0  0  0  0  0  0  0  0  0  0  0
    3.5965   -6.0254   -0.1074 O   0  0  0  0  0  0  0  0  0  0  0  0
   -2.7473   -0.4743    0.5067 P   0  0  2  0  0  5  0  0  0  0  0  0
    3.5664   -4.8585    2.4887 H   0  0  0  0  0  0  0  0  0  0  0  0
    1.7832   -4.5410    2.3971 H   0  0  0  0  0  0  0  0  0  0  0  0
    2.7536   -3.8815    3.7590 H   0  0  0  0  0  0  0  0  0  0  0  0
    3.9848   -2.3963    2.2947 H   0  0  0  0  0  0  0  0  0  0  0  0
    2.0880   -0.9031    1.4508 H   0  0  0  0  0  0  0  0  0  0  0  0
    2.0115   -1.4178    3.1708 H   0  0  0  0  0  0  0  0  0  0  0  0
    0.9433   -2.2070    1.9713 H   0  0  0  0  0  0  0  0  0  0  0  0
   -2.3766    1.1881   -1.2020 H   0  0  0  0  0  0  0  0  0  0  0  0
    0.2380   -3.8598    0.2379 H   0  0  0  0  0  0  0  0  0  0  0  0
   -1.5414   -2.4933   -1.2978 H   0  0  0  0  0  0  0  0  0  0  0  0
   -0.9966   -0.7994   -1.5905 H   0  0  0  0  0  0  0  0  0  0  0  0
    2.6136   -3.8200   -1.5227 H   0  0  0  0  0  0  0  0  0  0  0  0
    4.3303   -3.5685    0.2844 H   0  0  0  0  0  0  0  0  0  0  0  0
    3.4608   -2.0957   -0.1246 H   0  0  0  0  0  0  0  0  0  0  0  0
   -3.4513    3.1842   -0.0365 H   0  0  0  0  0  0  0  0  0  0  0  0
   -3.9067    2.1221    1.3198 H   0  0  0  0  0  0  0  0  0  0  0  0
   -7.9266    0.1370   -0.1421 H   0  0  0  0  0  0  0  0  0  0  0  0
   -5.9235    0.7940    1.1400 H   0  0  0  0  0  0  0  0  0  0  0  0
   -8.1041    0.6905   -2.5516 H   0  0  0  0  0  0  0  0  0  0  0  0
    3.6163    1.8583    1.4851 H   0  0  0  0  0  0  0  0  0  0  0  0
    1.7757    3.9686   -1.0605 H   0  0  0  0  0  0  0  0  0  0  0  0
    2.5871    4.0387    0.5298 H   0  0  0  0  0  0  0  0  0  0  0  0
   -4.2555    2.5806   -2.4179 H   0  0  0  0  0  0  0  0  0  0  0  0
   -6.2664    1.9109   -3.6832 H   0  0  0  0  0  0  0  0  0  0  0  0
    5.1477    0.0181    0.8732 H   0  0  0  0  0  0  0  0  0  0  0  0
    5.3863   -0.6689   -1.4958 H   0  0  0  0  0  0  0  0  0  0  0  0
    4.0709    0.4732   -3.2581 H   0  0  0  0  0  0  0  0  0  0  0  0
   -2.5455   -0.0771    2.6298 H   0  0  0  0  0  0  0  0  0  0  0  0
    2.5404    2.3173   -2.6674 H   0  0  0  0  0  0  0  0  0  0  0  0
   -1.3619   -2.2258    0.9888 H   0  0  0  0  0  0  0  0  0  0  0  0
   -1.2833    1.8970    1.5665 H   0  0  0  0  0  0  0  0  0  0  0  0
    3.6552   -7.0200    0.0763 H   0  0  0  0  0  0  0  0  0  0  0  0
  3  4  1  0
  4  5  1  0
  7  9  1  0
  8  9  1  0
  7 10  1  0
 10 11  1  0
  4 11  1  0
  9 12  2  0
  6 13  1  0
 13 14  1  0
 14 16  1  0
 15 16  2  0
 15 17  1  0
 18 19  2  0
  2 20  1  0
 18 20  1  0
  2 21  1  0
 14 22  2  0
 22 23  1  0
 17 23  2  0
  1 24  2  0
 10 24  1  0
 19 26  1  0
 26 27  2  0
 27 28  1  0
 21 30  2  0
 18 31  1  0
 28 31  2  0
  8 32  1  0
  6 33  1  0
 21 33  1  0
 24 34  1  0
 25 35  2  0
 32 35  1  0
 35 29  1  1
  6 35  1  0
  3 36  1  0
  3 37  1  0
  3 38  1  0
  4 39  1  0
  5 40  1  0
  5 41  1  0
  5 42  1  0
  6 43  1  6
  7 44  1  0
  8 45  1  0
  8 46  1  0
 10 47  1  6
 11 48  1  0
 11 49  1  0
 13 50  1  0
 13 51  1  0
 15 52  1  0
 16 53  1  0
 17 54  1  0
 19 55  1  0
 20 56  1  0
 20 57  1  0
 22 58  1  0
 23 59  1  0
 26 60  1  0
 27 61  1  0
 28 62  1  0
 29 63  1  0
 31 64  1  0
 32 65  1  0
 33 66  1  0
 34 67  1  0
M  END
