7N7B_T3F_A_302
     RDKit          3D

 35 37  0  0  0  0  0  0  0  0999 V2000
   44.2480  -14.5920    7.5390 O   0  0  0  0  0  0  0  0  0  0  0  0
   45.6340  -14.0880    7.7720 P   0  0  2  0  0  0  0  0  0  0  0  0
   46.0920  -13.6120    9.1250 O   0  0  0  0  0  0  0  0  0  0  0  0
   45.9020  -12.9710    6.6540 O   0  0  0  0  0  0  0  0  0  0  0  0
   46.9140  -12.0010    6.7710 C   0  0  1  0  0  0  0  0  0  0  0  0
   48.2180  -12.5140    6.5650 O   0  0  0  0  0  0  0  0  0  0  0  0
   48.4270  -13.0750    5.2460 C   0  0  2  0  0  0  0  0  0  0  0  0
   49.8020  -13.7010    5.2700 C   0  0  0  0  0  0  0  0  0  0  0  0
   46.5900  -10.9110    5.7710 C   0  0  2  0  0  0  0  0  0  0  0  0
   45.2170  -10.5860    5.9000 O   0  0  0  0  0  0  0  0  0  0  0  0
   46.9030  -11.3080    4.3370 C   0  0  1  0  0  0  0  0  0  0  0  0
   46.7940  -10.1170    3.4780 N   0  0  0  0  0  0  0  0  0  0  0  0
   48.2900  -11.9640    4.2220 C   0  0  1  0  0  0  0  0  0  0  0  0
   49.3140  -10.9930    4.4660 O   0  0  0  0  0  0  0  0  0  0  0  0
   46.6200  -15.2140    7.2470 O   0  0  0  0  0  0  0  0  0  0  0  0
   47.6800  -16.2380    7.8630 P   0  0  1  0  0  0  0  0  0  0  0  0
   48.2080  -16.9110    6.6360 O   0  0  0  0  0  0  0  0  0  0  0  0
   48.5460  -15.5170    8.8490 O   0  0  0  0  0  0  0  0  0  0  0  0
   46.7390  -17.2660    8.6180 O   0  0  0  0  0  0  0  0  0  0  0  0
   45.6120  -17.7430    7.9110 C   0  0  0  0  0  0  0  0  0  0  0  0
   44.5960  -18.1950    8.9280 C   0  0  1  0  0  0  0  0  0  0  0  0
   45.2070  -19.1530    9.8260 O   0  0  0  0  0  0  0  0  0  0  0  0
   44.0390  -17.1070    9.8370 C   0  0  1  0  0  0  0  0  0  0  0  0
   43.0360  -16.3390    9.1620 O   0  0  0  0  0  0  0  0  0  0  0  0
   43.5170  -17.9710   10.9840 C   0  0  0  0  0  0  0  0  0  0  0  0
   44.5720  -19.0820   11.0920 C   0  0  2  0  0  0  0  0  0  0  0  0
   45.6090  -18.8260   12.1030 N   0  0  0  0  0  0  0  0  0  0  0  0
   45.3770  -19.2810   13.3850 C   0  0  0  0  0  0  0  0  0  0  0  0
   44.3610  -19.8720   13.7050 O   0  0  0  0  0  0  0  0  0  0  0  0
   46.3440  -18.9620   14.2940 N   0  0  0  0  0  0  0  0  0  0  0  0
   46.7520  -18.1210   11.7990 C   0  0  0  0  0  0  0  0  0  0  0  0
   47.7080  -17.8300   12.6930 C   0  0  0  0  0  0  0  0  0  0  0  0
   48.9430  -17.0540   12.3450 C   0  0  0  0  0  0  0  0  0  0  0  0
   47.5140  -18.2670   14.0630 C   0  0  0  0  0  0  0  0  0  0  0  0
   48.2770  -18.0450   15.0000 O   0  0  0  0  0  0  0  0  0  0  0  0
  2  1  1  1
  2  3  2  0
  2  4  1  0
  5  4  1  6
  5  6  1  0
  6  7  1  0
  7  8  1  1
  5  9  1  0
  9 10  1  6
  9 11  1  0
 11 12  1  6
  7 13  1  0
 11 13  1  0
 13 14  1  1
  2 15  1  0
 15 16  1  0
 16 17  1  6
 16 18  2  0
 16 19  1  0
 19 20  1  0
 21 20  1  6
 21 22  1  0
 21 23  1  0
 23 24  1  6
 23 25  1  0
 22 26  1  0
 25 26  1  0
 26 27  1  1
 27 28  1  0
 28 29  2  0
 28 30  1  0
 27 31  1  0
 31 32  2  0
 32 33  1  0
 30 34  1  0
 32 34  1  0
 34 35  2  0
M  END
$$$$
