7N7B_T3F_A_302
     RDKit          3D

 62 64  0  0  0  0  0  0  0  0999 V2000
   -0.9129    5.1557   -0.0689 O   0  0  0  0  0  0  0  0  0  0  0  0
   -1.2405    3.5475    0.3558 P   0  0  2  0  0  5  0  0  0  0  0  0
   -1.6727    3.4985    1.8055 O   0  0  0  0  0  0  0  0  0  0  0  0
    0.1585    2.5964    0.0998 O   0  0  0  0  0  0  0  0  0  0  0  0
    1.0225    2.6953    1.2170 C   0  0  1  0  0  0  0  0  0  0  0  0
    0.5387    1.9304    2.3151 O   0  0  0  0  0  0  0  0  0  0  0  0
    0.4072    0.5590    1.9712 C   0  0  2  0  0  0  0  0  0  0  0  0
   -0.2837   -0.1715    3.1253 C   0  0  0  0  0  0  0  0  0  0  0  0
    2.4405    2.2374    0.8188 C   0  0  2  0  0  0  0  0  0  0  0  0
    2.8668    2.9811   -0.2953 O   0  0  0  0  0  0  0  0  0  0  0  0
    2.4416    0.7268    0.4932 C   0  0  1  0  0  0  0  0  0  0  0  0
    3.8084    0.2469    0.2638 N   0  0  0  0  0  0  0  0  0  0  0  0
    1.7866   -0.0566    1.6509 C   0  0  1  0  0  0  0  0  0  0  0  0
    2.6058   -0.0079    2.7957 O   0  0  0  0  0  0  0  0  0  0  0  0
   -2.5158    2.9423   -0.5969 O   0  0  0  0  0  0  0  0  0  0  0  0
   -2.0197    2.8962   -2.2337 P   0  0  1  0  0  5  0  0  0  0  0  0
   -3.1415    3.7820   -3.1378 O   0  0  0  0  0  0  0  0  0  0  0  0
   -0.6473    3.4904   -2.4738 O   0  0  0  0  0  0  0  0  0  0  0  0
   -2.0494    1.2869   -2.7977 O   0  0  0  0  0  0  0  0  0  0  0  0
   -1.1998    0.5029   -1.9919 C   0  0  0  0  0  0  0  0  0  0  0  0
   -1.1559   -0.9228   -2.5530 C   0  0  1  0  0  0  0  0  0  0  0  0
   -0.2170   -1.7032   -1.8482 O   0  0  0  0  0  0  0  0  0  0  0  0
   -2.5133   -1.6374   -2.4595 C   0  0  1  0  0  0  0  0  0  0  0  0
   -3.1803   -1.6213   -3.6961 O   0  0  0  0  0  0  0  0  0  0  0  0
   -2.1421   -3.0561   -2.0836 C   0  0  0  0  0  0  0  0  0  0  0  0
   -0.6196   -3.0352   -2.0783 C   0  0  2  0  0  0  0  0  0  0  0  0
   -0.0767   -3.9584   -1.0589 N   0  0  0  0  0  0  0  0  0  0  0  0
    0.2065   -5.2606   -1.3911 C   0  0  0  0  0  0  0  0  0  0  0  0
    0.0429   -5.6735   -2.5731 O   0  0  0  0  0  0  0  0  0  0  0  0
    0.6597   -6.1292   -0.4480 N   0  0  0  0  0  0  0  0  0  0  0  0
    0.0668   -3.5478    0.2403 C   0  0  0  0  0  0  0  0  0  0  0  0
    0.5497   -4.4245    1.2205 C   0  0  0  0  0  0  0  0  0  0  0  0
    0.6920   -3.9570    2.6451 C   0  0  0  0  0  0  0  0  0  0  0  0
    0.8362   -5.7438    0.8410 C   0  0  0  0  0  0  0  0  0  0  0  0
    1.2506   -6.5819    1.6877 O   0  0  0  0  0  0  0  0  0  0  0  0
   -1.7892    5.6197   -0.0078 H   0  0  0  0  0  0  0  0  0  0  0  0
    1.1217    3.7562    1.5475 H   0  0  0  0  0  0  0  0  0  0  0  0
   -0.2597    0.4325    1.0873 H   0  0  0  0  0  0  0  0  0  0  0  0
   -1.2664    0.3036    3.3356 H   0  0  0  0  0  0  0  0  0  0  0  0
    0.3317   -0.1248    4.0504 H   0  0  0  0  0  0  0  0  0  0  0  0
   -0.4657   -1.2314    2.8552 H   0  0  0  0  0  0  0  0  0  0  0  0
    3.1152    2.4282    1.6889 H   0  0  0  0  0  0  0  0  0  0  0  0
    3.8558    3.0457   -0.2411 H   0  0  0  0  0  0  0  0  0  0  0  0
    1.8407    0.5531   -0.4317 H   0  0  0  0  0  0  0  0  0  0  0  0
    4.1793    0.6960   -0.6056 H   0  0  0  0  0  0  0  0  0  0  0  0
    3.7637   -0.7774    0.0514 H   0  0  0  0  0  0  0  0  0  0  0  0
    1.6350   -1.1101    1.3202 H   0  0  0  0  0  0  0  0  0  0  0  0
    3.2239   -0.7813    2.7422 H   0  0  0  0  0  0  0  0  0  0  0  0
   -4.0223    3.4380   -2.8482 H   0  0  0  0  0  0  0  0  0  0  0  0
   -0.1605    0.9051   -2.0085 H   0  0  0  0  0  0  0  0  0  0  0  0
   -1.5684    0.4702   -0.9418 H   0  0  0  0  0  0  0  0  0  0  0  0
   -0.8281   -0.8639   -3.6186 H   0  0  0  0  0  0  0  0  0  0  0  0
   -3.1620   -1.2036   -1.6614 H   0  0  0  0  0  0  0  0  0  0  0  0
   -3.5369   -0.7035   -3.8117 H   0  0  0  0  0  0  0  0  0  0  0  0
   -2.5402   -3.2929   -1.0701 H   0  0  0  0  0  0  0  0  0  0  0  0
   -2.5247   -3.8081   -2.8106 H   0  0  0  0  0  0  0  0  0  0  0  0
   -0.2460   -3.3227   -3.0903 H   0  0  0  0  0  0  0  0  0  0  0  0
    0.8692   -7.1176   -0.7204 H   0  0  0  0  0  0  0  0  0  0  0  0
   -0.2029   -2.5368    0.5260 H   0  0  0  0  0  0  0  0  0  0  0  0
    1.2893   -4.6656    3.2593 H   0  0  0  0  0  0  0  0  0  0  0  0
   -0.3145   -3.8471    3.1045 H   0  0  0  0  0  0  0  0  0  0  0  0
    1.2169   -2.9797    2.6730 H   0  0  0  0  0  0  0  0  0  0  0  0
  2  1  1  6
  2  3  2  0
  2  4  1  0
  5  4  1  0
  5  6  1  0
  6  7  1  0
  7  8  1  0
  5  9  1  0
  9 10  1  0
  9 11  1  0
 11 12  1  0
  7 13  1  0
 11 13  1  0
 13 14  1  0
  2 15  1  0
 16 15  1  1
 16 17  1  0
 16 18  2  0
 16 19  1  0
 19 20  1  0
 21 20  1  0
 21 22  1  0
 21 23  1  0
 23 24  1  0
 23 25  1  0
 22 26  1  0
 25 26  1  0
 26 27  1  0
 27 28  1  0
 28 29  2  0
 28 30  1  0
 27 31  1  0
 31 32  2  0
 32 33  1  0
 30 34  1  0
 32 34  1  0
 34 35  2  0
  1 36  1  0
  5 37  1  1
  7 38  1  6
  8 39  1  0
  8 40  1  0
  8 41  1  0
  9 42  1  1
 10 43  1  0
 11 44  1  6
 12 45  1  0
 12 46  1  0
 13 47  1  6
 14 48  1  0
 17 49  1  0
 20 50  1  0
 20 51  1  0
 21 52  1  6
 23 53  1  1
 24 54  1  0
 25 55  1  0
 25 56  1  0
 26 57  1  6
 30 58  1  0
 31 59  1  0
 33 60  1  0
 33 61  1  0
 33 62  1  0
M  END
