6YYO_Q1K_BBB_323
     RDKit          3D

 19 21  0  0  0  0  0  0  0  0999 V2000
   13.1963   15.9599   23.2752 C   0  0  0  0  0  0  0  0  0  0  0  0
    9.8195   12.6655   24.6898 C   0  0  0  0  0  0  0  0  0  0  0  0
   10.7533   14.0802   26.3941 C   0  0  0  0  0  0  0  0  0  0  0  0
   10.2818   13.6084   23.6295 C   0  0  0  0  0  0  0  0  0  0  0  0
   11.3545   14.9655   25.2943 C   0  0  0  0  0  0  0  0  0  0  0  0
   13.9123   16.5660   22.2549 C   0  0  0  0  0  0  0  0  0  0  0  0
   12.2838   14.9200   23.0250 C   0  0  0  0  0  0  0  0  0  0  0  0
   12.6635   14.7447   19.6115 C   0  0  0  0  0  0  0  0  0  0  0  0
    7.2999   12.8545   26.1562 O   0  0  0  0  0  0  0  0  0  0  0  0
    8.4640   12.9607   26.9591 S   0  0  1  0  0  0  0  0  0  0  0  0
    8.5951   13.8466   28.0285 O   0  0  0  0  0  0  0  0  0  0  0  0
    8.8936   11.2652   27.3430 C   0  0  0  0  0  0  0  0  0  0  0  0
    9.4854   13.5234   25.8784 N   0  0  0  0  0  0  0  0  0  0  0  0
   11.5031   14.2753   23.9913 N   0  0  0  0  0  0  0  0  0  0  0  0
   12.0166   14.4494   21.7497 N   0  0  0  0  0  0  0  0  0  0  0  0
   13.5883   16.0390   21.0349 C   0  0  0  0  0  0  0  0  0  0  0  0
   14.0675   16.4532   19.8789 N   0  0  0  0  0  0  0  0  0  0  0  0
   13.5303   15.6072   19.0345 N   0  0  0  0  0  0  0  0  0  0  0  0
   12.6866   15.0904   20.8968 N   0  0  0  0  0  0  0  0  0  0  0  0
  2  4  1  0
  3  5  1  0
  1  6  2  0
  1  7  1  0
  9 10  2  0
 10 11  2  0
 10 12  1  1
  2 13  1  0
 10 13  1  0
  3 13  1  0
  4 14  1  0
  7 14  1  0
  5 14  1  0
  7 15  2  0
  6 16  1  0
 16 17  2  0
  8 18  2  0
 17 18  1  0
  8 19  1  0
 15 19  1  0
 16 19  1  0
M  END
