
     RDKit          3D

 29 30  0  0  0  0  0  0  0  0999 V2000
  -19.9603  -13.7112  -21.8024 C   0  0  0  0  0  0  0  0  0  0  0  0
  -21.2833  -13.8796  -22.0951 O   0  0  0  0  0  0  0  0  0  0  0  0
  -21.2575  -11.0565  -20.3314 C   0  0  0  0  0  0  0  0  0  0  0  0
  -20.6109  -12.3251  -19.7897 C   0  0  0  0  0  0  0  0  0  0  0  0
  -19.5844  -12.9310  -20.7196 C   0  0  0  0  0  0  0  0  0  0  0  0
  -17.3659  -13.3439  -21.1583 C   0  0  0  0  0  0  0  0  0  0  0  0
  -18.9265  -14.3477  -22.4779 C   0  0  0  0  0  0  0  0  0  0  0  0
  -21.6764  -13.3697  -23.3807 C   0  0  0  0  0  0  0  0  0  0  0  0
  -23.1533  -13.6524  -23.6501 C   0  0  0  0  0  0  0  0  0  0  0  0
  -24.0617  -12.6136  -22.9964 C   0  0  0  0  0  0  0  0  0  0  0  0
  -23.8832  -10.2720  -22.7199 C   0  0  0  0  0  0  0  0  0  0  0  0
  -24.7952   -9.9776  -21.7075 C   0  0  0  0  0  0  0  0  0  0  0  0
  -25.4657   -8.7552  -21.6971 C   0  0  0  0  0  0  0  0  0  0  0  0
  -25.2303   -7.8210  -22.7055 C   0  0  0  0  0  0  0  0  0  0  0  0
  -24.3315   -8.1078  -23.7407 C   0  0  0  0  0  0  0  0  0  0  0  0
  -24.0691   -7.0951  -24.8315 C   0  0  0  0  0  0  0  0  0  0  0  0
  -22.6977   -6.4102  -24.7851 C   0  0  2  0  0  0  0  0  0  0  0  0
  -22.7298   -5.0240  -24.1825 C   0  0  0  0  0  0  0  0  0  0  0  0
  -22.0833   -6.3163  -26.1498 C   0  0  0  0  0  0  0  0  0  0  0  0
  -23.6727   -9.3482  -23.7473 C   0  0  0  0  0  0  0  0  0  0  0  0
  -23.3844   -5.0645  -22.9874 F   0  0  0  0  0  0  0  0  0  0  0  0
  -23.4810   -4.2086  -24.9732 F   0  0  0  0  0  0  0  0  0  0  0  0
  -18.2838  -12.7315  -20.4057 N   0  0  0  0  0  0  0  0  0  0  0  0
  -16.0391  -13.0936  -20.8734 N   0  0  0  0  0  0  0  0  0  0  0  0
  -17.6340  -14.1465  -22.1900 N   0  0  0  0  0  0  0  0  0  0  0  0
  -19.1733  -15.2464  -23.5244 N   0  0  0  0  0  0  0  0  0  0  0  0
  -23.2640  -11.4895  -22.6157 O   0  0  0  0  0  0  0  0  0  0  0  0
  -20.9029   -6.3963  -26.4403 O   0  0  0  0  0  0  0  0  0  0  0  0
  -23.0044   -6.1186  -27.1159 O   0  0  0  0  0  0  0  0  0  0  0  0
  1  2  1  0
  3  4  1  0
  1  5  4  0
  4  5  1  0
  1  7  4  0
  2  8  1  0
  8  9  1  0
  9 10  1  0
 11 12  4  0
 12 13  4  0
 13 14  4  0
 14 15  4  0
 15 16  1  0
 17 16  1  6
 17 18  1  0
 17 19  1  0
 15 20  4  0
 11 20  4  0
 18 21  1  0
 18 22  1  0
  6 23  4  0
  5 23  4  0
  6 24  1  0
  7 25  4  0
  6 25  4  0
  7 26  1  0
 11 27  1  0
 10 27  1  0
 19 28  2  0
 19 29  1  0
M  END
