
     RDKit          3D

 19 21  0  0  0  0  0  0  0  0999 V2000
    8.2095   36.5545   19.1857 C   0  0  0  0  0  0  0  0  0  0  0  0
    9.2511   35.7484   18.7001 C   0  0  0  0  0  0  0  0  0  0  0  0
    8.7969   34.5016   18.2084 C   0  0  0  0  0  0  0  0  0  0  0  0
    7.5104   34.1235   18.2247 N   0  0  0  0  0  0  0  0  0  0  0  0
    6.6311   34.9731   18.7365 C   0  0  0  0  0  0  0  0  0  0  0  0
    6.9278   36.1834   19.1979 N   0  0  0  0  0  0  0  0  0  0  0  0
    9.6644   33.5562   17.6373 N   0  0  0  0  0  0  0  0  0  0  0  0
    8.4929   37.8167   19.6886 C   0  0  0  0  0  0  0  0  0  0  0  0
    9.7880   38.3241   19.7331 C   0  0  0  0  0  0  0  0  0  0  0  0
   10.8373   37.5481   19.2682 C   0  0  0  0  0  0  0  0  0  0  0  0
   10.5925   36.2629   18.7610 C   0  0  0  0  0  0  0  0  0  0  0  0
    5.3051   34.5928   18.7435 N   0  0  0  0  0  0  0  0  0  0  0  0
   12.0382   35.3482   18.2018 S   0  0  0  0  0  0  0  0  0  0  0  0
   13.2351   36.6595   18.0051 C   0  0  0  0  0  0  0  0  0  0  0  0
   14.1016   36.9499   19.0645 C   0  0  0  0  0  0  0  0  0  0  0  0
   15.0414   37.9763   18.9474 C   0  0  0  0  0  0  0  0  0  0  0  0
   15.1162   38.7227   17.7729 C   0  0  0  0  0  0  0  0  0  0  0  0
   14.2497   38.4466   16.7169 C   0  0  0  0  0  0  0  0  0  0  0  0
   13.3089   37.4207   16.8329 C   0  0  0  0  0  0  0  0  0  0  0  0
  1  2  4  0
  2  3  4  0
  3  4  4  0
  4  5  4  0
  1  6  4  0
  5  6  4  0
  3  7  1  0
  1  8  4  0
  8  9  4  0
  9 10  4  0
  2 11  4  0
 10 11  4  0
  5 12  1  0
 11 13  1  0
 13 14  1  0
 14 15  4  0
 15 16  4  0
 16 17  4  0
 17 18  4  0
 14 19  4  0
 18 19  4  0
M  END
