1UML_FR4_A_1001
     RDKit          3D

 60 63  0  0  0  0  0  0  0  0999 V2000
   -0.0066   -4.9192    1.5517 C   0  0  0  0  0  0  0  0  0  0  0  0
   -0.5326   -3.7561    1.9690 N   0  0  0  0  0  0  0  0  0  0  0  0
   -0.6313   -3.8587    3.3108 C   0  0  0  0  0  0  0  0  0  0  0  0
   -0.1771   -5.0416    3.7739 N   0  0  0  0  0  0  0  0  0  0  0  0
    0.2168   -5.7033    2.6657 C   0  0  0  0  0  0  0  0  0  0  0  0
    0.7957   -7.0582    2.6948 C   0  0  0  0  0  0  0  0  0  0  0  0
    0.9396   -7.6432    3.8027 O   0  0  0  0  0  0  0  0  0  0  0  0
    1.2027   -7.7227    1.4950 N   0  0  0  0  0  0  0  0  0  0  0  0
   -0.9349   -2.6267    1.1202 C   0  0  1  0  0  0  0  0  0  0  0  0
   -2.4597   -2.4486    1.1606 C   0  0  0  0  0  0  0  0  0  0  0  0
   -3.0857   -3.6208    0.7173 O   0  0  0  0  0  0  0  0  0  0  0  0
   -0.2246   -1.3259    1.5511 C   0  0  0  0  0  0  0  0  0  0  0  0
    1.3083   -1.4174    1.4845 C   0  0  0  0  0  0  0  0  0  0  0  0
    1.7713   -1.6816    0.1199 N   0  0  0  0  0  0  0  0  0  0  0  0
    2.2486   -2.8620   -0.3448 C   0  0  0  0  0  0  0  0  0  0  0  0
    2.5684   -2.7630   -1.6938 C   0  0  0  0  0  0  0  0  0  0  0  0
    2.2683   -1.4635   -2.0439 C   0  0  0  0  0  0  0  0  0  0  0  0
    1.7896   -0.8313   -0.9266 C   0  0  0  0  0  0  0  0  0  0  0  0
    2.3973   -0.8063   -3.2640 C   0  0  0  0  0  0  0  0  0  0  0  0
    2.0096    0.5443   -3.3286 C   0  0  0  0  0  0  0  0  0  0  0  0
    1.4956    1.2058   -2.1821 C   0  0  0  0  0  0  0  0  0  0  0  0
    1.4048    0.5112   -0.9575 C   0  0  0  0  0  0  0  0  0  0  0  0
    1.1091    2.5877   -2.2280 N   0  0  0  0  0  0  0  0  0  0  0  0
    0.3644    3.1764   -3.3080 C   0  0  0  0  0  0  0  0  0  0  0  0
    0.0705    2.5048   -4.3328 O   0  0  0  0  0  0  0  0  0  0  0  0
   -0.1584    4.5762   -3.1730 C   0  0  0  0  0  0  0  0  0  0  0  0
   -1.5850    4.5929   -2.6052 C   0  0  0  0  0  0  0  0  0  0  0  0
   -1.2045    4.6715   -0.1067 C   0  0  0  0  0  0  0  0  0  0  0  0
   -1.6537    3.9644   -1.2347 C   0  0  0  0  0  0  0  0  0  0  0  0
   -2.1017    2.6404   -1.0808 C   0  0  0  0  0  0  0  0  0  0  0  0
   -2.1090    2.0404    0.1829 C   0  0  0  0  0  0  0  0  0  0  0  0
   -1.6594    2.7515    1.2985 C   0  0  0  0  0  0  0  0  0  0  0  0
   -1.2084    4.0661    1.1543 C   0  0  0  0  0  0  0  0  0  0  0  0
    0.1922   -5.1664    0.5191 H   0  0  0  0  0  0  0  0  0  0  0  0
   -1.0311   -3.0831    3.9508 H   0  0  0  0  0  0  0  0  0  0  0  0
    1.6063   -8.6854    1.5427 H   0  0  0  0  0  0  0  0  0  0  0  0
    1.1060   -7.2735    0.5573 H   0  0  0  0  0  0  0  0  0  0  0  0
   -0.6564   -2.8408    0.0632 H   0  0  0  0  0  0  0  0  0  0  0  0
   -2.7900   -2.2164    2.1986 H   0  0  0  0  0  0  0  0  0  0  0  0
   -2.7514   -1.6028    0.4974 H   0  0  0  0  0  0  0  0  0  0  0  0
   -4.0613   -3.4424    0.7515 H   0  0  0  0  0  0  0  0  0  0  0  0
   -0.5181   -1.0628    2.5903 H   0  0  0  0  0  0  0  0  0  0  0  0
   -0.5637   -0.4953    0.8978 H   0  0  0  0  0  0  0  0  0  0  0  0
    1.6719   -2.2118    2.1717 H   0  0  0  0  0  0  0  0  0  0  0  0
    1.7442   -0.4589    1.8403 H   0  0  0  0  0  0  0  0  0  0  0  0
    2.3643   -3.7529    0.2586 H   0  0  0  0  0  0  0  0  0  0  0  0
    2.9698   -3.5405   -2.3310 H   0  0  0  0  0  0  0  0  0  0  0  0
    2.7925   -1.3146   -4.1343 H   0  0  0  0  0  0  0  0  0  0  0  0
    2.1365    1.0767   -4.2612 H   0  0  0  0  0  0  0  0  0  0  0  0
    1.0388    1.0083   -0.0687 H   0  0  0  0  0  0  0  0  0  0  0  0
    1.1896    3.1383   -1.3439 H   0  0  0  0  0  0  0  0  0  0  0  0
    0.5163    5.1713   -2.5203 H   0  0  0  0  0  0  0  0  0  0  0  0
   -0.1629    5.0606   -4.1730 H   0  0  0  0  0  0  0  0  0  0  0  0
   -1.9332    5.6461   -2.5417 H   0  0  0  0  0  0  0  0  0  0  0  0
   -2.2698    4.0692   -3.3077 H   0  0  0  0  0  0  0  0  0  0  0  0
   -0.8416    5.6854   -0.2081 H   0  0  0  0  0  0  0  0  0  0  0  0
   -2.4357    2.0707   -1.9397 H   0  0  0  0  0  0  0  0  0  0  0  0
   -2.4609    1.0231    0.2954 H   0  0  0  0  0  0  0  0  0  0  0  0
   -1.6602    2.2826    2.2741 H   0  0  0  0  0  0  0  0  0  0  0  0
   -0.8579    4.6150    2.0193 H   0  0  0  0  0  0  0  0  0  0  0  0
  1  2  1  0
  2  3  1  0
  3  4  2  0
  1  5  2  0
  4  5  1  0
  5  6  1  0
  6  7  2  0
  6  8  1  0
  2  9  1  0
  9 10  1  0
 10 11  1  0
  9 12  1  0
 12 13  1  0
 13 14  1  0
 14 15  1  0
 15 16  2  0
 16 17  1  0
 14 18  1  0
 17 18  2  0
 17 19  1  0
 19 20  2  0
 20 21  1  0
 18 22  1  0
 21 22  2  0
 21 23  1  0
 23 24  1  0
 24 25  2  0
 24 26  1  0
 26 27  1  0
 27 29  1  0
 28 29  2  0
 29 30  1  0
 30 31  2  0
 31 32  1  0
 28 33  1  0
 32 33  2  0
  1 34  1  0
  3 35  1  0
  8 36  1  0
  8 37  1  0
  9 38  1  6
 10 39  1  0
 10 40  1  0
 11 41  1  0
 12 42  1  0
 12 43  1  0
 13 44  1  0
 13 45  1  0
 15 46  1  0
 16 47  1  0
 19 48  1  0
 20 49  1  0
 22 50  1  0
 23 51  1  0
 26 52  1  0
 26 53  1  0
 27 54  1  0
 27 55  1  0
 28 56  1  0
 30 57  1  0
 31 58  1  0
 32 59  1  0
 33 60  1  0
M  END
