6XM9_V55_A_501
     RDKit          3D

 11 11  0  0  0  0  0  0  0  0999 V2000
   17.6325   36.3088   15.3265 C   0  0  0  0  0  0  0  0  0  0  0  0
   16.5425   35.4777   15.0559 C   0  0  0  0  0  0  0  0  0  0  0  0
   16.6995   34.1849   14.6244 C   0  0  0  0  0  0  0  0  0  0  0  0
   17.9775   33.6933   14.4534 C   0  0  0  0  0  0  0  0  0  0  0  0
   19.0939   34.4808   14.7093 C   0  0  0  0  0  0  0  0  0  0  0  0
   16.3836   38.2387   15.9951 O   0  0  0  0  0  0  0  0  0  0  0  0
   18.8948   35.7760   15.1418 C   0  0  0  0  0  0  0  0  0  0  0  0
   17.4724   37.6785   15.7836 C   0  0  0  0  0  0  0  0  0  0  0  0
   14.3136   34.0095   14.5097 C   0  0  0  0  0  0  0  0  0  0  0  0
   15.5840   33.4039   14.3707 O   0  0  0  0  0  0  0  0  0  0  0  0
   18.1165   32.4002   14.0219 O   0  0  0  0  0  0  0  0  0  0  0  0
  1  2  2  0
  2  3  1  0
  3  4  2  0
  4  5  1  0
  1  7  1  0
  5  7  2  0
  1  8  1  0
  6  8  2  0
  3 10  1  0
  9 10  1  1
  4 11  1  0
M  END
$$$$
