7V43_C4O_A_501
     RDKit          3D

  8  8  0  0  0  0  0  0  0  0999 V2000
  -17.5554   31.9810   -4.3596 C   0  0  0  0  0  0  0  0  0  0  0  0
  -17.7302   31.3435   -5.7002 C   0  0  0  0  0  0  0  0  0  0  0  0
  -17.7168   29.9712   -5.8469 C   0  0  0  0  0  0  0  0  0  0  0  0
  -17.8803   29.3746   -7.1018 C   0  0  0  0  0  0  0  0  0  0  0  0
  -18.0553   30.2111   -8.1849 C   0  0  0  0  0  0  0  0  0  0  0  0
  -18.2669   29.5255   -9.7934 Cl  0  0  0  0  0  0  0  0  0  0  0  0
  -18.0751   31.5864   -8.0826 C   0  0  0  0  0  0  0  0  0  0  0  0
  -17.9095   32.1410   -6.8214 C   0  0  0  0  0  0  0  0  0  0  0  0
  1  2  1  0
  2  3  2  0
  3  4  1  0
  4  5  2  0
  5  6  1  0
  5  7  1  0
  7  8  2  0
  2  8  1  0
M  END
$$$$
