
     RDKit          3D

 22 21  0  0  0  0  0  0  0  0999 V2000
    8.5511   22.8437   17.2203 C   0  0  0  0  0  0  0  0  0  0  0  0
    8.7813   22.2440   15.8333 C   0  0  0  0  0  0  0  0  0  0  0  0
    8.6832   23.2916   14.7440 C   0  0  0  0  0  0  0  0  0  0  0  0
    8.1320   24.3804   14.8779 O   0  0  0  0  0  0  0  0  0  0  0  0
    7.6330   20.7776   18.3069 C   0  0  0  0  0  0  0  0  0  0  0  0
    7.8170   20.5711   19.6312 O   0  0  0  0  0  0  0  0  0  0  0  0
    7.6945   19.8357   17.5322 O   0  0  0  0  0  0  0  0  0  0  0  0
    6.9870   23.0417   19.1335 N   0  0  0  0  0  0  0  0  0  0  0  0
    7.3398   22.2397   17.9374 C   0  0  1  0  0  0  0  0  0  0  0  0
    9.2557   22.9034   13.5584 N   0  0  0  0  0  0  0  0  0  0  0  0
    9.8221   23.8516   12.5895 C   0  0  1  0  0  0  0  0  0  0  0  0
   11.3157   23.6135   12.3531 C   0  0  0  0  0  0  0  0  0  0  0  0
   12.3227   23.9579   13.8427 S   0  0  0  0  0  4  0  0  0  0  0  0
   13.2697   25.0707   13.5023 O   0  0  0  0  0  0  0  0  0  0  0  0
   13.1905   22.6164   13.6950 O   0  0  0  0  0  0  0  0  0  0  0  0
    9.0250   23.8502   11.2649 C   0  0  0  0  0  0  0  0  0  0  0  0
    8.9368   22.8708   10.5285 O   0  0  0  0  0  0  0  0  0  0  0  0
    8.4620   25.0670   10.9442 N   0  0  0  0  0  0  0  0  0  0  0  0
    8.2289   25.4444    9.5634 C   0  0  0  0  0  0  0  0  0  0  0  0
    9.4093   26.2411    9.0289 C   0  0  0  0  0  0  0  0  0  0  0  0
   10.5533   25.5252    9.0144 O   0  0  0  0  0  0  0  0  0  0  0  0
    9.4117   27.4140    8.6859 O   0  0  0  0  0  0  0  0  0  0  0  0
  1  2  1  0
  2  3  1  0
  3  4  2  0
  5  6  1  0
  5  7  2  0
  1  9  1  0
  5  9  1  0
  9  8  1  1
  3 10  1  0
 10 11  1  0
 11 12  1  6
 12 13  1  0
 13 14  2  0
 13 15  1  0
 11 16  1  0
 16 17  2  0
 16 18  1  0
 18 19  1  0
 19 20  1  0
 20 21  1  0
 20 22  2  0
M  END
