7PIH_7QW_A_401
     RDKit          3D

 24 27  0  0  0  0  0  0  0  0999 V2000
   36.5790  -14.8447  -23.0340 O   0  0  0  0  0  0  0  0  0  0  0  0
   35.3523  -15.3295  -22.6528 C   0  0  0  0  0  0  0  0  0  0  0  0
   35.0121  -16.5796  -23.0729 N   0  0  0  0  0  0  0  0  0  0  0  0
   33.8176  -17.1047  -22.7266 C   0  0  0  0  0  0  0  0  0  0  0  0
   32.9101  -16.4090  -21.9476 C   0  0  0  0  0  0  0  0  0  0  0  0
   33.2243  -15.1409  -21.5060 C   0  0  0  0  0  0  0  0  0  0  0  0
   34.4520  -14.6297  -21.8754 C   0  0  0  0  0  0  0  0  0  0  0  0
   34.8314  -13.3675  -21.4692 C   0  0  0  0  0  0  0  0  0  0  0  0
   33.9530  -12.6413  -20.6904 C   0  0  0  0  0  0  0  0  0  0  0  0
   32.3623  -14.3851  -20.7214 C   0  0  0  0  0  0  0  0  0  0  0  0
   32.7177  -13.1203  -20.3021 C   0  0  0  0  0  0  0  0  0  0  0  0
   31.8440  -12.2842  -19.4738 C   0  0  0  0  0  0  0  0  0  0  0  0
   32.1689  -10.9449  -19.4026 C   0  0  0  0  0  0  0  0  0  0  0  0
   31.4162  -10.0707  -18.6523 C   0  0  0  0  0  0  0  0  0  0  0  0
   30.3328  -10.5900  -17.9814 C   0  0  0  0  0  0  0  0  0  0  0  0
   30.7589  -12.7661  -18.7931 C   0  0  0  0  0  0  0  0  0  0  0  0
   29.9685  -11.9168  -18.0209 C   0  0  0  0  0  0  0  0  0  0  0  0
   28.8122  -12.4852  -17.3043 C   0  0  0  0  0  0  0  0  0  0  0  0
   28.6069  -13.8331  -17.7402 N   0  0  0  0  0  0  0  0  0  0  0  0
   29.2403  -14.8187  -16.8919 C   0  0  0  0  0  0  0  0  0  0  0  0
   28.3518  -14.7712  -15.6577 C   0  0  0  0  0  0  0  0  0  0  0  0
   27.2046  -14.2315  -17.6599 C   0  0  0  0  0  0  0  0  0  0  0  0
   26.9592  -14.5257  -16.2155 C   0  0  2  0  0  0  0  0  0  0  0  0
   26.2829  -13.4620  -15.5131 N   0  0  0  0  0  0  0  0  0  0  0  0
  1  2  1  0
  2  3  2  0
  3  4  1  0
  4  5  2  0
  5  6  1  0
  6  7  2  0
  2  7  1  0
  7  8  1  0
  8  9  2  0
  6 10  1  0
  9 11  1  0
 10 11  2  0
 11 12  1  0
 12 13  2  0
 13 14  1  0
 14 15  2  0
 12 16  1  0
 15 17  1  0
 16 17  2  0
 17 18  1  0
 18 19  1  1
 20 19  1  6
 21 20  1  6
 22 19  1  6
 22 23  1  0
 21 23  1  0
 23 24  1  1
M  END
$$$$
