7CUO_PHB_A_304
     RDKit          3D

 10 10  0  0  0  0  0  0  0  0999 V2000
   14.6031   17.8879   71.5895 C   0  0  0  0  0  0  0  0  0  0  0  0
   15.8376   18.0846   71.4473 O   0  0  0  0  0  0  0  0  0  0  0  0
   13.9537   18.5035   72.6722 O   0  0  0  0  0  0  0  0  0  0  0  0
   13.8694   17.0399   70.6491 C   0  0  0  0  0  0  0  0  0  0  0  0
   14.5837   16.4827   69.6164 C   0  0  0  0  0  0  0  0  0  0  0  0
   13.9094   15.6737   68.7104 C   0  0  0  0  0  0  0  0  0  0  0  0
   12.5533   15.4674   68.8899 C   0  0  0  0  0  0  0  0  0  0  0  0
   11.8436   16.0335   69.9335 C   0  0  0  0  0  0  0  0  0  0  0  0
   12.5194   16.8459   70.8438 C   0  0  0  0  0  0  0  0  0  0  0  0
   11.9016   14.6574   67.9746 O   0  0  0  0  0  0  0  0  0  0  0  0
  1  2  2  0
  1  3  1  0
  1  4  1  0
  4  5  2  0
  5  6  1  0
  6  7  2  0
  7  8  1  0
  4  9  1  0
  8  9  2  0
  7 10  1  0
M  END
$$$$
