7QHL_D5P_A_301
     RDKit          3D

 30 34  0  0  0  0  0  0  0  0999 V2000
   23.4320  -19.9160   37.0490 N   0  0  0  0  0  0  0  0  0  0  0  0
   21.8870  -14.1390   38.5870 N   0  0  0  0  0  0  0  0  0  0  0  0
   22.3770  -14.4770   37.3820 C   0  0  0  0  0  0  0  0  0  0  0  0
   21.9260  -15.0100   39.7460 C   0  0  0  0  0  0  0  0  0  0  0  0
   23.1810  -14.7910   40.5370 C   0  0  0  0  0  0  0  0  0  0  0  0
   24.0300  -15.8400   40.8340 C   0  0  0  0  0  0  0  0  0  0  0  0
   25.1880  -15.6410   41.5620 C   0  0  0  0  0  0  0  0  0  0  0  0
   26.9660  -13.0860   43.5680 C   0  0  0  0  0  0  0  0  0  0  0  0
   24.6140  -13.3260   41.7940 C   0  0  0  0  0  0  0  0  0  0  0  0
   22.0060  -13.7740   36.2190 C   0  0  0  0  0  0  0  0  0  0  0  0
   22.0970  -13.3590   32.5340 C   0  0  0  0  0  0  0  0  0  0  0  0
   21.5080  -14.5930   31.7440 C   0  0  0  0  0  0  0  0  0  0  0  0
   22.5100  -14.1790   34.9780 C   0  0  0  0  0  0  0  0  0  0  0  0
   23.5820  -18.6760   37.8420 C   0  0  0  0  0  0  0  0  0  0  0  0
   24.8370  -17.8790   37.5780 C   0  0  0  0  0  0  0  0  0  0  0  0
   24.7980  -17.1350   35.9020 S   0  0  0  0  0  0  0  0  0  0  0  0
   23.6520  -15.8290   36.0250 C   0  0  0  0  0  0  0  0  0  0  0  0
   23.2540  -15.4860   37.2790 N   0  0  0  0  0  0  0  0  0  0  0  0
   25.4530  -14.3810   42.0660 C   0  0  0  0  0  0  0  0  0  0  0  0
   26.6400  -14.1530   42.8080 N   0  0  0  0  0  0  0  0  0  0  0  0
   28.2400  -13.2950   44.0360 C   0  0  0  0  0  0  0  0  0  0  0  0
   28.6390  -14.4960   43.4780 C   0  0  0  0  0  0  0  0  0  0  0  0
   27.6750  -15.0280   42.7090 N   0  0  0  0  0  0  0  0  0  0  0  0
   23.4800  -13.5340   41.0310 C   0  0  0  0  0  0  0  0  0  0  0  0
   21.2410  -12.7030   35.9600 N   0  0  0  0  0  0  0  0  0  0  0  0
   21.1820  -12.4740   34.6190 N   0  0  0  0  0  0  0  0  0  0  0  0
   21.9670  -13.3550   34.0120 C   0  0  0  0  0  0  0  0  0  0  0  0
   23.4660  -13.6930   31.9570 C   0  0  0  0  0  0  0  0  0  0  0  0
   22.7990  -14.6750   30.9530 C   0  0  0  0  0  0  0  0  0  0  0  0
   23.3490  -15.2310   34.8590 N   0  0  0  0  0  0  0  0  0  0  0  0
  2  3  1  0
  2  4  1  0
  4  5  1  0
  5  6  2  0
  6  7  1  0
  3 10  2  0
 11 12  1  0
 10 13  1  0
  1 14  1  0
 14 15  1  0
 15 16  1  0
 16 17  1  0
 17 18  2  0
  3 18  1  0
  7 19  2  0
  9 19  1  0
 19 20  1  0
  8 20  1  0
  8 21  2  0
 21 22  1  0
 20 23  1  0
 22 23  2  0
  5 24  1  0
  9 24  2  0
 10 25  1  0
 25 26  1  0
 11 27  1  0
 26 27  2  0
 13 27  1  0
 11 28  1  0
 12 29  1  0
 28 29  1  0
 13 30  2  0
 17 30  1  0
M  END
$$$$
7QHL_D5P_C_301
     RDKit          3D

 30 34  0  0  0  0  0  0  0  0999 V2000
   35.4300   19.2020   -2.1690 N   0  0  0  0  0  0  0  0  0  0  0  0
   34.8400   13.5410   -4.2590 N   0  0  0  0  0  0  0  0  0  0  0  0
   34.6390   13.8890   -2.9730 C   0  0  0  0  0  0  0  0  0  0  0  0
   35.4990   14.4020   -5.2250 C   0  0  0  0  0  0  0  0  0  0  0  0
   36.9840   14.1910   -5.2230 C   0  0  0  0  0  0  0  0  0  0  0  0
   37.8610   15.2330   -4.9620 C   0  0  0  0  0  0  0  0  0  0  0  0
   39.2300   15.0320   -4.9620 C   0  0  0  0  0  0  0  0  0  0  0  0
   41.8050   12.4800   -5.6610 C   0  0  0  0  0  0  0  0  0  0  0  0
   38.8710   12.7150   -5.4820 C   0  0  0  0  0  0  0  0  0  0  0  0
   33.6950   13.1950   -2.2130 C   0  0  0  0  0  0  0  0  0  0  0  0
   31.7510   12.8180    0.9150 C   0  0  0  0  0  0  0  0  0  0  0  0
   30.8750   14.0610    1.2400 C   0  0  0  0  0  0  0  0  0  0  0  0
   33.4350   13.6340   -0.9040 C   0  0  0  0  0  0  0  0  0  0  0  0
   35.9680   17.9740   -2.7450 C   0  0  0  0  0  0  0  0  0  0  0  0
   36.9160   17.2520   -1.8170 C   0  0  0  0  0  0  0  0  0  0  0  0
   35.9800   16.5450   -0.4160 S   0  0  0  0  0  0  0  0  0  0  0  0
   35.0130   15.2720   -1.1350 C   0  0  0  0  0  0  0  0  0  0  0  0
   35.3340   14.8950   -2.4070 N   0  0  0  0  0  0  0  0  0  0  0  0
   39.7280   13.7770   -5.2530 C   0  0  0  0  0  0  0  0  0  0  0  0
   41.1240   13.5480   -5.2040 N   0  0  0  0  0  0  0  0  0  0  0  0
   43.1160   12.6620   -5.3160 C   0  0  0  0  0  0  0  0  0  0  0  0
   43.1440   13.8620   -4.5960 C   0  0  0  0  0  0  0  0  0  0  0  0
   41.9210   14.4070   -4.5100 N   0  0  0  0  0  0  0  0  0  0  0  0
   37.5070   12.9400   -5.4980 C   0  0  0  0  0  0  0  0  0  0  0  0
   32.8470   12.1700   -2.4740 N   0  0  0  0  0  0  0  0  0  0  0  0
   32.0520   11.9180   -1.3920 N   0  0  0  0  0  0  0  0  0  0  0  0
   32.4230   12.8170   -0.4030 C   0  0  0  0  0  0  0  0  0  0  0  0
   32.5580   13.0800    2.1710 C   0  0  0  0  0  0  0  0  0  0  0  0
   31.5520   14.1640    2.5990 C   0  0  0  0  0  0  0  0  0  0  0  0
   34.1090   14.6710   -0.3240 N   0  0  0  0  0  0  0  0  0  0  0  0
  2  3  1  0
  2  4  1  0
  4  5  1  0
  5  6  2  0
  6  7  1  0
  3 10  2  0
 11 12  1  0
 10 13  1  0
  1 14  1  0
 14 15  1  0
 15 16  1  0
 16 17  1  0
 17 18  2  0
  3 18  1  0
  7 19  2  0
  9 19  1  0
 19 20  1  0
  8 20  1  0
  8 21  2  0
 21 22  1  0
 20 23  1  0
 22 23  2  0
  5 24  1  0
  9 24  2  0
 10 25  1  0
 25 26  1  0
 11 27  1  0
 26 27  2  0
 13 27  1  0
 11 28  1  0
 12 29  1  0
 28 29  1  0
 13 30  2  0
 17 30  1  0
M  END
$$$$
