1SG0_STL_B_502
     RDKit          3D

 29 30  0  0  0  0  0  0  0  0999 V2000
   -3.5459   -1.7396    0.9003 C   0  0  0  0  0  0  0  0  0  0  0  0
   -4.3430   -0.6965    1.3786 C   0  0  0  0  0  0  0  0  0  0  0  0
   -3.8763    0.6198    1.3425 C   0  0  0  0  0  0  0  0  0  0  0  0
   -2.6001    0.8938    0.8320 C   0  0  0  0  0  0  0  0  0  0  0  0
   -1.7773   -0.1452    0.3649 C   0  0  0  0  0  0  0  0  0  0  0  0
   -2.2683   -1.4667    0.3910 C   0  0  0  0  0  0  0  0  0  0  0  0
   -0.4383    0.1990   -0.1748 C   0  0  0  0  0  0  0  0  0  0  0  0
    0.5818   -0.6712   -0.2437 C   0  0  0  0  0  0  0  0  0  0  0  0
    1.9213   -0.3282   -0.7829 C   0  0  0  0  0  0  0  0  0  0  0  0
    2.4074    0.9949   -0.8272 C   0  0  0  0  0  0  0  0  0  0  0  0
    3.6827    1.2633   -1.3347 C   0  0  0  0  0  0  0  0  0  0  0  0
    4.4928    0.2216   -1.7942 C   0  0  0  0  0  0  0  0  0  0  0  0
    4.0248   -1.0967   -1.7397 C   0  0  0  0  0  0  0  0  0  0  0  0
    2.7510   -1.3697   -1.2324 C   0  0  0  0  0  0  0  0  0  0  0  0
    5.7601    0.5059   -2.2980 O   0  0  0  0  0  0  0  0  0  0  0  0
   -4.6876    1.6489    1.8155 O   0  0  0  0  0  0  0  0  0  0  0  0
   -4.0339   -3.0442    0.9308 O   0  0  0  0  0  0  0  0  0  0  0  0
   -5.3294   -0.9083    1.7722 H   0  0  0  0  0  0  0  0  0  0  0  0
   -2.2470    1.9180    0.8092 H   0  0  0  0  0  0  0  0  0  0  0  0
   -1.6843   -2.2865   -0.0032 H   0  0  0  0  0  0  0  0  0  0  0  0
   -0.2967    1.2178   -0.5084 H   0  0  0  0  0  0  0  0  0  0  0  0
    0.4398   -1.6894    0.0918 H   0  0  0  0  0  0  0  0  0  0  0  0
    1.8243    1.8233   -0.4505 H   0  0  0  0  0  0  0  0  0  0  0  0
    4.0451    2.2832   -1.3635 H   0  0  0  0  0  0  0  0  0  0  0  0
    4.6471   -1.9109   -2.0889 H   0  0  0  0  0  0  0  0  0  0  0  0
    2.4086   -2.3970   -1.1994 H   0  0  0  0  0  0  0  0  0  0  0  0
    6.3716   -0.2274   -2.6375 H   0  0  0  0  0  0  0  0  0  0  0  0
   -4.3798    2.6143    1.8036 H   0  0  0  0  0  0  0  0  0  0  0  0
   -3.4834   -3.8244    0.5914 H   0  0  0  0  0  0  0  0  0  0  0  0
  1  2  2  0
  2  3  1  0
  3  4  2  0
  4  5  1  0
  1  6  1  0
  5  6  2  0
  5  7  1  0
  7  8  2  0
  8  9  1  0
  9 10  2  0
 10 11  1  0
 11 12  2  0
 12 13  1  0
  9 14  1  0
 13 14  2  0
 12 15  1  0
  3 16  1  0
  1 17  1  0
  2 18  1  0
  4 19  1  0
  6 20  1  0
  7 21  1  0
  8 22  1  0
 10 23  1  0
 11 24  1  0
 13 25  1  0
 14 26  1  0
 15 27  1  0
 16 28  1  0
 17 29  1  0
M  END
