7USH_82V_A_501
     RDKit          3D

 43 47  0  0  0  0  0  0  0  0999 V2000
   16.2499   -8.5343    8.9132 C   0  0  2  0  0  0  0  0  0  0  0  0
   15.6324   -6.1030    4.4369 C   0  0  0  0  0  0  0  0  0  0  0  0
   16.4564   -4.0439    3.3091 C   0  0  0  0  0  0  0  0  0  0  0  0
   17.8293   -3.1851    5.2654 C   0  0  0  0  0  0  0  0  0  0  0  0
   19.5537   -1.3242    6.4740 C   0  0  0  0  0  0  0  0  0  0  0  0
   20.7866   -0.5804    8.4718 C   0  0  2  0  0  0  0  0  0  0  0  0
   17.9583   -3.1401    6.6668 C   0  0  0  0  0  0  0  0  0  0  0  0
   14.3227   -7.9866    4.1882 O   0  0  0  0  0  0  0  0  0  0  0  0
   15.0887   -7.2906    4.9062 C   0  0  0  0  0  0  0  0  0  0  0  0
   15.4177   -7.6902    6.2078 C   0  0  0  0  0  0  0  0  0  0  0  0
   16.2900   -6.8819    6.9843 C   0  0  0  0  0  0  0  0  0  0  0  0
   16.6658   -7.2507    8.3300 N   0  0  0  0  0  0  0  0  0  0  0  0
   17.1823   -6.2097    9.2291 C   0  0  1  0  0  0  0  0  0  0  0  0
   18.0595   -6.8274   10.3208 C   0  0  2  0  0  0  0  0  0  0  0  0
   17.3874   -7.8937   10.9595 O   0  0  0  0  0  0  0  0  0  0  0  0
   17.2022   -8.9498   10.0392 C   0  0  2  0  0  0  0  0  0  0  0  0
   16.7715   -5.7456    6.4654 O   0  0  0  0  0  0  0  0  0  0  0  0
   16.4630   -5.3447    5.2372 C   0  0  0  0  0  0  0  0  0  0  0  0
   15.4578   -5.3600    2.9428 S   0  0  0  0  0  0  0  0  0  0  0  0
   16.9318   -4.1728    4.6201 C   0  0  0  0  0  0  0  0  0  0  0  0
   18.5553   -2.2671    4.4820 C   0  0  0  0  0  0  0  0  0  0  0  0
   19.4145   -1.3422    5.0850 C   0  0  0  0  0  0  0  0  0  0  0  0
   20.4323   -0.4304    7.0946 O   0  0  0  0  0  0  0  0  0  0  0  0
   19.5661   -1.0241    9.2889 C   0  0  1  0  0  0  0  0  0  0  0  0
   18.9248   -2.1351    8.6573 O   0  0  0  0  0  0  0  0  0  0  0  0
   18.8077   -2.2060    7.2653 C   0  0  0  0  0  0  0  0  0  0  0  0
   16.2662   -9.3348    8.1424 H   0  0  0  0  0  0  0  0  0  0  0  0
   15.2180   -8.4370    9.3146 H   0  0  0  0  0  0  0  0  0  0  0  0
   16.6714   -3.2242    2.6364 H   0  0  0  0  0  0  0  0  0  0  0  0
   21.1802    0.3818    8.8613 H   0  0  0  0  0  0  0  0  0  0  0  0
   21.5826   -1.3511    8.5578 H   0  0  0  0  0  0  0  0  0  0  0  0
   17.3783   -3.8000    7.2984 H   0  0  0  0  0  0  0  0  0  0  0  0
   14.9874   -8.5999    6.6049 H   0  0  0  0  0  0  0  0  0  0  0  0
   17.7936   -5.4677    8.6723 H   0  0  0  0  0  0  0  0  0  0  0  0
   16.3260   -5.6784    9.6979 H   0  0  0  0  0  0  0  0  0  0  0  0
   18.2853   -6.0480   11.0787 H   0  0  0  0  0  0  0  0  0  0  0  0
   19.0354   -7.1587    9.8965 H   0  0  0  0  0  0  0  0  0  0  0  0
   18.1750   -9.2954    9.6195 H   0  0  0  0  0  0  0  0  0  0  0  0
   16.7591   -9.8137   10.5781 H   0  0  0  0  0  0  0  0  0  0  0  0
   18.4769   -2.2804    3.4022 H   0  0  0  0  0  0  0  0  0  0  0  0
   19.9826   -0.6533    4.4731 H   0  0  0  0  0  0  0  0  0  0  0  0
   19.8750   -1.3084   10.3167 H   0  0  0  0  0  0  0  0  0  0  0  0
   18.8455   -0.1809    9.3545 H   0  0  0  0  0  0  0  0  0  0  0  0
  4  7  1  0
  2  9  1  0
  8  9  2  0
  9 10  1  0
 10 11  2  0
 11 12  1  0
  1 12  1  0
 12 13  1  0
 13 14  1  0
 14 15  1  0
  1 16  1  0
 15 16  1  0
 11 17  1  0
  2 18  2  0
 17 18  1  0
  3 19  1  0
  2 19  1  0
  3 20  2  0
  4 20  1  0
 18 20  1  0
  4 21  2  0
  5 22  2  0
 21 22  1  0
  5 23  1  0
  6 23  1  0
  6 24  1  0
 24 25  1  0
 25 26  1  0
  7 26  2  0
  5 26  1  0
  1 27  1  6
  1 28  1  0
  3 29  1  0
  6 30  1  1
  6 31  1  0
  7 32  1  0
 10 33  1  0
 13 34  1  6
 13 35  1  0
 14 36  1  1
 14 37  1  0
 16 38  1  6
 16 39  1  0
 21 40  1  0
 22 41  1  0
 24 42  1  1
 24 43  1  0
M  END
