7DKT_GLF_A_1001
     RDKit          3D

 12 12  0  0  0  0  0  0  0  0999 V2000
   52.2922   28.7660   70.7516 C   0  0  1  0  0  0  0  0  0  0  0  0
   52.1101   27.2831   71.0907 C   0  0  1  0  0  0  0  0  0  0  0  0
   53.2565   26.9307   72.0071 C   0  0  2  0  0  0  0  0  0  0  0  0
   54.5393   27.1641   71.2385 C   0  0  1  0  0  0  0  0  0  0  0  0
   54.5850   28.5843   70.7672 C   0  0  1  0  0  0  0  0  0  0  0  0
   55.7624   28.7148   69.8050 C   0  0  0  0  0  0  0  0  0  0  0  0
   52.2676   29.4850   71.9304 F   0  0  0  0  0  0  0  0  0  0  0  0
   50.8808   27.1715   71.6935 O   0  0  0  0  0  0  0  0  0  0  0  0
   53.2228   25.6171   72.4096 O   0  0  0  0  0  0  0  0  0  0  0  0
   55.6515   26.9064   72.0418 O   0  0  0  0  0  0  0  0  0  0  0  0
   53.4649   28.9433   70.0533 O   0  0  0  0  0  0  0  0  0  0  0  0
   55.4506   28.1472   68.5950 O   0  0  0  0  0  0  0  0  0  0  0  0
  1  2  1  0
  2  3  1  0
  3  4  1  0
  4  5  1  0
  5  6  1  6
  1  7  1  1
  2  8  1  1
  3  9  1  6
  4 10  1  1
  1 11  1  0
  5 11  1  0
  6 12  1  0
M  END
$$$$
