6TW5_9M2_CCC_501
     RDKit          3D

 31 34  0  0  0  0  0  0  0  0999 V2000
   18.9419   14.8911   58.9315 C   0  0  0  0  0  0  0  0  0  0  0  0
   19.5444   19.1038   59.1608 C   0  0  0  0  0  0  0  0  0  0  0  0
   19.7325   20.4801   58.9390 C   0  0  0  0  0  0  0  0  0  0  0  0
   18.0710   17.1384   59.3509 C   0  0  0  0  0  0  0  0  0  0  0  0
   19.1018   16.2906   58.8601 C   0  0  0  0  0  0  0  0  0  0  0  0
   18.2362   18.5855   59.2097 C   0  0  0  0  0  0  0  0  0  0  0  0
   17.1652   19.4921   59.0119 C   0  0  0  0  0  0  0  0  0  0  0  0
   20.5619   22.5611   58.6272 N   0  0  0  0  0  0  0  0  0  0  0  0
   17.3366   20.8492   58.7650 C   0  0  0  0  0  0  0  0  0  0  0  0
   18.6272   21.3977   58.7574 C   0  0  0  0  0  0  0  0  0  0  0  0
   17.6692   13.0330   59.5016 F   0  0  0  0  0  0  0  0  0  0  0  0
   17.7688   14.3691   59.4877 C   0  0  0  0  0  0  0  0  0  0  0  0
   16.7454   15.1569   59.9770 C   0  0  0  0  0  0  0  0  0  0  0  0
   16.8690   16.5251   59.9394 C   0  0  0  0  0  0  0  0  0  0  0  0
   19.1587   22.6579   58.5529 N   0  0  0  0  0  0  0  0  0  0  0  0
   20.9812   21.2994   58.8773 C   0  0  0  0  0  0  0  0  0  0  0  0
   22.4352   20.8102   59.0794 C   0  0  0  0  0  0  0  0  0  0  0  0
   23.2301   20.5877   57.8524 N   0  0  0  0  0  0  0  0  0  0  0  0
   22.4909   19.7973   56.8266 C   0  0  0  0  0  0  0  0  0  0  0  0
   23.5657   21.8913   57.2268 C   0  0  0  0  0  0  0  0  0  0  0  0
   15.9263   17.3908   60.4033 O   0  0  0  0  0  0  0  0  0  0  0  0
   14.8992   16.7589   61.2006 C   0  0  0  0  0  0  0  0  0  0  0  0
   14.1951   17.8910   61.8758 C   0  0  0  0  0  0  0  0  0  0  0  0
   13.6553   17.5759   63.2608 C   0  0  0  0  0  0  0  0  0  0  0  0
   14.0650   16.5581   64.2904 C   0  0  0  0  0  0  0  0  0  0  0  0
   15.2072   15.5691   64.3388 C   0  0  0  0  0  0  0  0  0  0  0  0
   13.2647   16.6608   65.3474 N   0  0  0  0  0  0  0  0  0  0  0  0
   12.3001   17.6791   65.0646 N   0  0  0  0  0  0  0  0  0  0  0  0
   11.2839   17.8670   66.1130 C   0  0  0  0  0  0  0  0  0  0  0  0
   12.4710   18.2522   63.8734 C   0  0  0  0  0  0  0  0  0  0  0  0
   11.6384   19.4064   63.3437 C   0  0  0  0  0  0  0  0  0  0  0  0
  2  3  1  0
  1  5  2  0
  4  5  1  0
  4  6  1  0
  2  6  2  0
  6  7  1  0
  7  9  2  0
  3 10  1  0
  9 10  1  0
 11 12  1  0
  1 12  1  0
 12 13  2  0
 13 14  1  0
  4 14  2  0
 10 15  2  0
  8 15  1  0
  3 16  2  0
  8 16  1  0
 16 17  1  0
 17 18  1  0
 18 19  1  0
 18 20  1  0
 14 21  1  0
 21 22  1  0
 22 23  1  0
 23 24  1  0
 24 25  1  0
 25 26  1  0
 25 27  2  0
 27 28  1  0
 28 29  1  0
 24 30  2  0
 28 30  1  0
 30 31  1  0
M  END
