1V48_HA1_A_290
     RDKit          3D

 22 23  0  0  0  0  0  0  0  0999 V2000
   72.3742   46.7073   49.8083 N   0  0  0  0  0  0  0  0  0  0  0  0
   71.0984   46.9712   50.1648 C   0  0  0  0  0  0  0  0  0  0  0  0
   70.8762   48.3123   50.1074 N   0  0  0  0  0  0  0  0  0  0  0  0
   72.0184   48.9144   49.7110 C   0  0  0  0  0  0  0  0  0  0  0  0
   72.3963   50.2283   49.4771 C   0  0  0  0  0  0  0  0  0  0  0  0
   71.5557   51.1644   49.6416 O   0  0  0  0  0  0  0  0  0  0  0  0
   73.6700   50.4939   49.0725 N   0  0  0  0  0  0  0  0  0  0  0  0
   74.5766   49.5145   48.8922 C   0  0  0  0  0  0  0  0  0  0  0  0
   75.9150   49.7635   48.4698 N   0  0  0  0  0  0  0  0  0  0  0  0
   74.1958   48.2251   49.1248 N   0  0  0  0  0  0  0  0  0  0  0  0
   72.9550   47.9088   49.5242 C   0  0  0  0  0  0  0  0  0  0  0  0
   73.0439   45.4183   49.7274 C   0  0  0  0  0  0  0  0  0  0  0  0
   72.0991   44.2723   49.8705 C   0  0  0  0  0  0  0  0  0  0  0  0
   72.7531   43.0183   49.3690 C   0  0  0  0  0  0  0  0  0  0  0  0
   73.7973   42.5067   50.2950 C   0  0  0  0  0  0  0  0  0  0  0  0
   74.2707   41.1019   50.0137 C   0  0  2  0  0  0  0  0  0  0  0  0
   74.9070   40.9615   48.8245 F   0  0  0  0  0  0  0  0  0  0  0  0
   73.1265   40.3038   49.9492 F   0  0  0  0  0  0  0  0  0  0  0  0
   75.2908   40.4617   51.3685 P   0  0  1  0  0  0  0  0  0  0  0  0
   76.6997   41.4032   51.4951 O   0  0  0  0  0  0  0  0  0  0  0  0
   74.5729   40.5603   52.6947 O   0  0  0  0  0  0  0  0  0  0  0  0
   75.7105   38.8473   51.0965 O   0  0  0  0  0  0  0  0  0  0  0  0
  1  2  1  0
  2  3  2  0
  3  4  1  0
  4  5  1  0
  5  6  2  0
  5  7  1  0
  7  8  1  0
  8  9  1  0
  8 10  2  0
  1 11  1  0
  4 11  2  0
 10 11  1  0
  1 12  1  0
 12 13  1  0
 13 14  1  0
 14 15  1  0
 15 16  1  0
 16 17  1  6
 16 18  1  0
 16 19  1  0
 19 20  1  1
 19 21  2  0
 19 22  1  0
M  END
$$$$
