1V48_HA1_A_290
     RDKit          3D

 22 23  0  0  0  0  0  0  0  0999 V2000
   72.8543   46.8324   50.0337 N   0  0  0  0  0  0  0  0  0  0  0  0
   71.5434   46.9456   50.3392 C   0  0  0  0  0  0  0  0  0  0  0  0
   71.1249   48.2165   50.0922 N   0  0  0  0  0  0  0  0  0  0  0  0
   72.1754   48.9250   49.6244 C   0  0  0  0  0  0  0  0  0  0  0  0
   72.3592   50.2363   49.2113 C   0  0  0  0  0  0  0  0  0  0  0  0
   71.3835   51.0471   49.2359 O   0  0  0  0  0  0  0  0  0  0  0  0
   73.5902   50.6344   48.7837 N   0  0  0  0  0  0  0  0  0  0  0  0
   74.6379   49.7890   48.7502 C   0  0  0  0  0  0  0  0  0  0  0  0
   75.9359   50.1783   48.3078 N   0  0  0  0  0  0  0  0  0  0  0  0
   74.4476   48.5011   49.1584 N   0  0  0  0  0  0  0  0  0  0  0  0
   73.2569   48.0577   49.5883 C   0  0  0  0  0  0  0  0  0  0  0  0
   73.7113   45.6616   50.1400 C   0  0  0  0  0  0  0  0  0  0  0  0
   73.2178   44.6807   51.1503 C   0  0  0  0  0  0  0  0  0  0  0  0
   74.1649   43.5191   51.2249 C   0  0  0  0  0  0  0  0  0  0  0  0
   73.4713   42.2075   51.1359 C   0  0  0  0  0  0  0  0  0  0  0  0
   74.3655   40.9994   51.2686 C   0  0  2  0  0  0  0  0  0  0  0  0
   74.3471   40.4316   52.4999 F   0  0  0  0  0  0  0  0  0  0  0  0
   75.6710   41.4478   51.0568 F   0  0  0  0  0  0  0  0  0  0  0  0
   74.0110   39.7675   49.9869 P   0  0  1  0  0  0  0  0  0  0  0  0
   72.3609   39.3660   50.0442 O   0  0  0  0  0  0  0  0  0  0  0  0
   74.2849   40.3139   48.6047 O   0  0  0  0  0  0  0  0  0  0  0  0
   74.9414   38.3751   50.2150 O   0  0  0  0  0  0  0  0  0  0  0  0
  1  2  1  0
  2  3  2  0
  3  4  1  0
  4  5  1  0
  5  6  2  0
  5  7  1  0
  7  8  1  0
  8  9  1  0
  8 10  2  0
  1 11  1  0
  4 11  2  0
 10 11  1  0
  1 12  1  0
 12 13  1  0
 13 14  1  0
 14 15  1  0
 15 16  1  0
 16 17  1  1
 16 18  1  0
 16 19  1  0
 19 20  1  6
 19 21  2  0
 19 22  1  0
M  END
$$$$
