1V48_HA1_A_290
     RDKit          3D

 22 23  0  0  0  0  0  0  0  0999 V2000
   72.5188   46.4998   50.1964 N   0  0  0  0  0  0  0  0  0  0  0  0
   71.2038   46.7546   50.3709 C   0  0  0  0  0  0  0  0  0  0  0  0
   70.9556   48.0682   50.1174 N   0  0  0  0  0  0  0  0  0  0  0  0
   72.1203   48.6615   49.7775 C   0  0  0  0  0  0  0  0  0  0  0  0
   72.4891   49.9501   49.4207 C   0  0  0  0  0  0  0  0  0  0  0  0
   71.6114   50.8649   49.3686 O   0  0  0  0  0  0  0  0  0  0  0  0
   73.7940   50.2142   49.1305 N   0  0  0  0  0  0  0  0  0  0  0  0
   74.7401   49.2571   49.1801 C   0  0  0  0  0  0  0  0  0  0  0  0
   76.1118   49.5050   48.8818 N   0  0  0  0  0  0  0  0  0  0  0  0
   74.3680   47.9925   49.5321 N   0  0  0  0  0  0  0  0  0  0  0  0
   73.0977   47.6789   49.8273 C   0  0  0  0  0  0  0  0  0  0  0  0
   73.2261   45.2386   50.3570 C   0  0  0  0  0  0  0  0  0  0  0  0
   73.3623   44.8368   51.7875 C   0  0  0  0  0  0  0  0  0  0  0  0
   74.1206   43.5448   51.8748 C   0  0  0  0  0  0  0  0  0  0  0  0
   73.6457   42.5340   50.8938 C   0  0  0  0  0  0  0  0  0  0  0  0
   74.3243   41.1891   50.9800 C   0  0  2  0  0  0  0  0  0  0  0  0
   74.2289   40.5997   52.1975 F   0  0  0  0  0  0  0  0  0  0  0  0
   75.6835   41.4161   50.7533 F   0  0  0  0  0  0  0  0  0  0  0  0
   73.7466   40.0697   49.6764 P   0  0  1  0  0  0  0  0  0  0  0  0
   74.4354   38.5352   49.9172 O   0  0  0  0  0  0  0  0  0  0  0  0
   72.2464   39.8931   49.7247 O   0  0  0  0  0  0  0  0  0  0  0  0
   74.1764   40.6506   48.1486 O   0  0  0  0  0  0  0  0  0  0  0  0
  1  2  1  0
  2  3  2  0
  3  4  1  0
  4  5  1  0
  5  6  2  0
  5  7  1  0
  7  8  1  0
  8  9  1  0
  8 10  2  0
  1 11  1  0
  4 11  2  0
 10 11  1  0
  1 12  1  0
 12 13  1  0
 13 14  1  0
 14 15  1  0
 15 16  1  0
 16 17  1  1
 16 18  1  0
 16 19  1  0
 19 20  1  1
 19 21  2  0
 19 22  1  0
M  END
$$$$
