1V48_HA1_A_290
     RDKit          3D

 22 23  0  0  0  0  0  0  0  0999 V2000
   72.4196   46.8274   50.1153 N   0  0  0  0  0  0  0  0  0  0  0  0
   71.3362   46.0949   50.4533 C   0  0  0  0  0  0  0  0  0  0  0  0
   70.2530   46.9096   50.5723 N   0  0  0  0  0  0  0  0  0  0  0  0
   70.6438   48.1753   50.3086 C   0  0  0  0  0  0  0  0  0  0  0  0
   70.0031   49.4050   50.2730 C   0  0  0  0  0  0  0  0  0  0  0  0
   68.7629   49.4768   50.5311 O   0  0  0  0  0  0  0  0  0  0  0  0
   70.7192   50.5212   49.9602 N   0  0  0  0  0  0  0  0  0  0  0  0
   72.0360   50.4656   49.6832 C   0  0  0  0  0  0  0  0  0  0  0  0
   72.8092   51.6167   49.3531 N   0  0  0  0  0  0  0  0  0  0  0  0
   72.6576   49.2517   49.7206 N   0  0  0  0  0  0  0  0  0  0  0  0
   71.9998   48.1225   50.0228 C   0  0  0  0  0  0  0  0  0  0  0  0
   73.7828   46.3750   49.8845 C   0  0  0  0  0  0  0  0  0  0  0  0
   74.7098   46.7650   50.9867 C   0  0  0  0  0  0  0  0  0  0  0  0
   76.1286   46.5490   50.5481 C   0  0  0  0  0  0  0  0  0  0  0  0
   76.9028   47.8153   50.4681 C   0  0  0  0  0  0  0  0  0  0  0  0
   76.8366   48.5240   49.1376 C   0  0  2  0  0  0  0  0  0  0  0  0
   75.5750   48.7614   48.7009 F   0  0  0  0  0  0  0  0  0  0  0  0
   77.4267   47.6695   48.2039 F   0  0  0  0  0  0  0  0  0  0  0  0
   77.8109   50.0526   49.1509 P   0  0  1  0  0  0  0  0  0  0  0  0
   77.6166   50.8475   47.6617 O   0  0  0  0  0  0  0  0  0  0  0  0
   77.3331   51.0029   50.2245 O   0  0  0  0  0  0  0  0  0  0  0  0
   79.4483   49.7219   49.4074 O   0  0  0  0  0  0  0  0  0  0  0  0
  1  2  1  0
  2  3  2  0
  3  4  1  0
  4  5  1  0
  5  6  2  0
  5  7  1  0
  7  8  1  0
  8  9  1  0
  8 10  2  0
  1 11  1  0
  4 11  2  0
 10 11  1  0
  1 12  1  0
 12 13  1  0
 13 14  1  0
 14 15  1  0
 15 16  1  0
 16 17  1  6
 16 18  1  0
 16 19  1  0
 19 20  1  6
 19 21  2  0
 19 22  1  0
M  END
$$$$
