1V48_HA1_A_290
     RDKit          3D

 22 23  0  0  0  0  0  0  0  0999 V2000
   74.4135   58.3003   53.9445 N   0  0  0  0  0  0  0  0  0  0  0  0
   74.7792   59.5131   53.4756 C   0  0  0  0  0  0  0  0  0  0  0  0
   73.6808   60.1803   53.0290 N   0  0  0  0  0  0  0  0  0  0  0  0
   72.6012   59.3899   53.2126 C   0  0  0  0  0  0  0  0  0  0  0  0
   71.2437   59.5208   52.9593 C   0  0  0  0  0  0  0  0  0  0  0  0
   70.8008   60.5883   52.4355 O   0  0  0  0  0  0  0  0  0  0  0  0
   70.4039   58.4964   53.2784 N   0  0  0  0  0  0  0  0  0  0  0  0
   70.8546   57.3559   53.8348 C   0  0  0  0  0  0  0  0  0  0  0  0
   69.9990   56.2688   54.1786 N   0  0  0  0  0  0  0  0  0  0  0  0
   72.1913   57.2360   54.0803 N   0  0  0  0  0  0  0  0  0  0  0  0
   73.0611   58.2137   53.7856 C   0  0  0  0  0  0  0  0  0  0  0  0
   75.2538   57.2586   54.5149 C   0  0  0  0  0  0  0  0  0  0  0  0
   76.6578   57.7127   54.7359 C   0  0  0  0  0  0  0  0  0  0  0  0
   77.4390   56.6186   55.4027 C   0  0  0  0  0  0  0  0  0  0  0  0
   78.8647   56.9808   55.6166 C   0  0  0  0  0  0  0  0  0  0  0  0
   79.5232   56.3187   56.8018 C   0  0  2  0  0  0  0  0  0  0  0  0
   79.5454   54.9645   56.7357 F   0  0  0  0  0  0  0  0  0  0  0  0
   78.7532   56.6500   57.9188 F   0  0  0  0  0  0  0  0  0  0  0  0
   81.1880   56.9761   57.0887 P   0  0  1  0  0  0  0  0  0  0  0  0
   81.0744   58.6280   57.4700 O   0  0  0  0  0  0  0  0  0  0  0  0
   81.8555   56.2967   58.2621 O   0  0  0  0  0  0  0  0  0  0  0  0
   82.1595   56.7757   55.7203 O   0  0  0  0  0  0  0  0  0  0  0  0
  1  2  1  0
  2  3  2  0
  3  4  1  0
  4  5  1  0
  5  6  2  0
  5  7  1  0
  7  8  1  0
  8  9  1  0
  8 10  2  0
  1 11  1  0
  4 11  2  0
 10 11  1  0
  1 12  1  0
 12 13  1  0
 13 14  1  0
 14 15  1  0
 15 16  1  0
 16 17  1  6
 16 18  1  0
 16 19  1  0
 19 20  1  1
 19 21  2  0
 19 22  1  0
M  END
$$$$
