1V48_HA1_A_290
     RDKit          3D

 22 23  0  0  0  0  0  0  0  0999 V2000
   73.5451   46.5811   50.1335 N   0  0  0  0  0  0  0  0  0  0  0  0
   74.5971   47.2937   49.6752 C   0  0  0  0  0  0  0  0  0  0  0  0
   74.1852   48.5424   49.3252 N   0  0  0  0  0  0  0  0  0  0  0  0
   72.8583   48.6323   49.5606 C   0  0  0  0  0  0  0  0  0  0  0  0
   71.9071   49.6299   49.4060 C   0  0  0  0  0  0  0  0  0  0  0  0
   72.2500   50.7612   48.9450 O   0  0  0  0  0  0  0  0  0  0  0  0
   70.6138   49.3778   49.7531 N   0  0  0  0  0  0  0  0  0  0  0  0
   70.2302   48.1839   50.2440 C   0  0  0  0  0  0  0  0  0  0  0  0
   68.8850   47.8929   50.6151 N   0  0  0  0  0  0  0  0  0  0  0  0
   71.1727   47.2087   50.3926 N   0  0  0  0  0  0  0  0  0  0  0  0
   72.4590   47.4043   50.0664 C   0  0  0  0  0  0  0  0  0  0  0  0
   73.5216   45.2081   50.6140 C   0  0  0  0  0  0  0  0  0  0  0  0
   74.8560   44.7478   51.0975 C   0  0  0  0  0  0  0  0  0  0  0  0
   74.7323   43.3660   51.6694 C   0  0  0  0  0  0  0  0  0  0  0  0
   74.2960   42.3652   50.6607 C   0  0  0  0  0  0  0  0  0  0  0  0
   74.6540   40.9348   50.9807 C   0  0  2  0  0  0  0  0  0  0  0  0
   74.2615   40.5301   52.2139 F   0  0  0  0  0  0  0  0  0  0  0  0
   76.0485   40.8622   50.9633 F   0  0  0  0  0  0  0  0  0  0  0  0
   74.0456   39.7976   49.7068 P   0  0  1  0  0  0  0  0  0  0  0  0
   72.3473   39.8470   49.6840 O   0  0  0  0  0  0  0  0  0  0  0  0
   74.5180   40.2060   48.3305 O   0  0  0  0  0  0  0  0  0  0  0  0
   74.5627   38.2177   50.0120 O   0  0  0  0  0  0  0  0  0  0  0  0
  1  2  1  0
  2  3  2  0
  3  4  1  0
  4  5  1  0
  5  6  2  0
  5  7  1  0
  7  8  1  0
  8  9  1  0
  8 10  2  0
  1 11  1  0
  4 11  2  0
 10 11  1  0
  1 12  1  0
 12 13  1  0
 13 14  1  0
 14 15  1  0
 15 16  1  0
 16 17  1  1
 16 18  1  0
 16 19  1  0
 19 20  1  6
 19 21  2  0
 19 22  1  0
M  END
$$$$
