6YMS_OZH_E_409
     RDKit          3D

 35 36  0  0  0  0  0  0  0  0999 V2000
   42.5578   40.2556   -6.3096 O   0  0  0  0  0  0  0  0  0  0  0  0
   32.4518   41.9611   -4.2656 O   0  0  0  0  0  0  0  0  0  0  0  0
   42.7866   41.9075   -0.8603 C   0  0  0  0  0  0  0  0  0  0  0  0
   42.3529   42.1642   -2.2946 C   0  0  1  0  0  0  0  0  0  0  0  0
   43.4763   42.8050   -3.0927 C   0  0  0  0  0  0  0  0  0  0  0  0
   34.8365   39.2952   -4.0889 C   0  0  1  0  0  0  0  0  0  0  0  0
   39.9228   41.0512   -4.4332 N   0  0  0  0  0  0  0  0  0  0  0  0
   37.7267   42.0813   -4.2687 C   0  0  0  0  0  0  0  0  0  0  0  0
   39.2354   42.1584   -4.1386 C   0  0  0  0  0  0  0  0  0  0  0  0
   41.3770   41.0312   -4.3886 C   0  0  1  0  0  0  0  0  0  0  0  0
   41.8843   40.8720   -2.9528 C   0  0  0  0  0  0  0  0  0  0  0  0
   39.7748   43.1990   -3.7760 O   0  0  0  0  0  0  0  0  0  0  0  0
   34.6443   38.6251   -2.7166 C   0  0  0  0  0  0  0  0  0  0  0  0
   33.1815   38.3572   -2.4640 C   0  0  0  0  0  0  0  0  0  0  0  0
   30.9412   39.1491   -2.0616 C   0  0  0  0  0  0  0  0  0  0  0  0
   32.2894   39.3992   -2.2551 C   0  0  0  0  0  0  0  0  0  0  0  0
   30.4688   37.8558   -2.0712 C   0  0  0  0  0  0  0  0  0  0  0  0
   30.6910   43.5886   -4.2127 C   0  0  0  0  0  0  0  0  0  0  0  0
   30.0053   44.3669   -5.1320 C   0  0  0  0  0  0  0  0  0  0  0  0
   31.0419   42.1668   -4.5298 C   0  0  0  0  0  0  0  0  0  0  0  0
   32.8352   40.6877   -4.0675 C   0  0  0  0  0  0  0  0  0  0  0  0
   32.6916   37.0598   -2.4635 C   0  0  0  0  0  0  0  0  0  0  0  0
   31.3438   36.8115   -2.2685 C   0  0  0  0  0  0  0  0  0  0  0  0
   41.9491   39.9134   -5.2733 C   0  0  0  0  0  0  0  0  0  0  0  0
   36.7562   39.7707   -5.8700 O   0  0  0  0  0  0  0  0  0  0  0  0
   29.6650   45.6742   -4.8350 C   0  0  0  0  0  0  0  0  0  0  0  0
   30.0008   46.2182   -3.6155 C   0  0  0  0  0  0  0  0  0  0  0  0
   30.6874   45.4589   -2.6962 C   0  0  0  0  0  0  0  0  0  0  0  0
   37.3889   38.3300   -3.8424 O   0  0  0  0  0  0  0  0  0  0  0  0
   32.0758   39.7657   -3.8577 O   0  0  0  0  0  0  0  0  0  0  0  0
   31.0324   44.1519   -2.9911 C   0  0  0  0  0  0  0  0  0  0  0  0
   37.0967   40.9446   -3.6029 N   0  0  0  0  0  0  0  0  0  0  0  0
   34.1701   40.5878   -4.1396 N   0  0  0  0  0  0  0  0  0  0  0  0
   41.7708   38.7305   -4.8928 O   0  0  0  0  0  0  0  0  0  0  0  0
   36.7115   39.5305   -4.4236 P   0  0  2  0  0  0  0  0  0  0  0  0
  4  3  1  1
  4  5  1  0
  7  9  1  0
  8  9  1  0
  7 10  1  0
 10 11  1  1
  4 11  1  0
  9 12  2  0
  6 13  1  1
 13 14  1  0
 14 16  1  0
 15 16  2  0
 15 17  1  0
 18 19  2  0
  2 20  1  0
 18 20  1  0
  2 21  1  0
 14 22  2  0
 22 23  1  0
 17 23  2  0
  1 24  2  0
 10 24  1  0
 19 26  1  0
 26 27  2  0
 27 28  1  0
 21 30  2  0
 18 31  1  0
 28 31  2  0
  8 32  1  0
  6 33  1  0
 21 33  1  0
 24 34  1  0
 25 35  2  0
 32 35  1  0
 35 29  1  6
  6 35  1  0
M  END
