7JR8_VH7_A_205
     RDKit          3D

 55 58  0  0  0  0  0  0  0  0999 V2000
   -3.0207    0.1024    1.3272 C   0  0  0  0  0  0  0  0  0  0  0  0
   -2.2743   -1.2102    1.0257 C   0  0  2  0  0  0  0  0  0  0  0  0
   -1.4855   -1.6687    2.2650 C   0  0  0  0  0  0  0  0  0  0  0  0
   -5.1420   -1.6368    5.0090 C   0  0  0  0  0  0  0  0  0  0  0  0
   -4.0447   -0.5482    5.0845 C   0  0  0  0  0  0  0  0  0  0  0  0
   -3.1691   -0.8022    6.3334 C   0  0  0  0  0  0  0  0  0  0  0  0
   -3.1537   -0.5038    3.7919 C   0  0  2  0  0  0  0  0  0  0  0  0
   -3.9474   -0.0563    2.5391 C   0  0  0  0  0  0  0  0  0  0  0  0
   -2.4055   -1.8258    3.4836 C   0  0  0  0  0  0  0  0  0  0  0  0
   -0.7788   -2.1443   -0.8044 C   0  0  0  0  0  0  0  0  0  0  0  0
    0.3037   -1.9458   -1.7971 C   0  0  0  0  0  0  0  0  0  0  0  0
    0.5466   -2.9240   -2.7932 C   0  0  0  0  0  0  0  0  0  0  0  0
    1.5737   -2.7516   -3.7343 C   0  0  0  0  0  0  0  0  0  0  0  0
    2.3431   -1.5964   -3.6476 C   0  0  0  0  0  0  0  0  0  0  0  0
    3.7920   -0.0746   -3.9657 C   0  0  0  0  0  0  0  0  0  0  0  0
    3.0125    0.2892   -2.8711 C   0  0  0  0  0  0  0  0  0  0  0  0
    1.1300   -0.8018   -1.7616 C   0  0  0  0  0  0  0  0  0  0  0  0
    4.9242    0.6907   -4.5438 C   0  0  0  0  0  0  0  0  0  0  0  0
    5.3252    1.9285   -4.0030 C   0  0  0  0  0  0  0  0  0  0  0  0
    6.3951    2.6332   -4.5637 C   0  0  0  0  0  0  0  0  0  0  0  0
    7.0762    2.1146   -5.6666 C   0  0  0  0  0  0  0  0  0  0  0  0
    6.6890    0.8894   -6.2121 C   0  0  0  0  0  0  0  0  0  0  0  0
    5.6200    0.1800   -5.6561 C   0  0  0  0  0  0  0  0  0  0  0  0
   -1.3627   -1.0293   -0.1096 N   0  0  0  0  0  0  0  0  0  0  0  0
    3.3691   -1.2679   -4.4566 N   0  0  0  0  0  0  0  0  0  0  0  0
    2.1087   -0.6839   -2.6938 N   0  0  0  0  0  0  0  0  0  0  0  0
   -4.6566    0.7151    5.2248 O   0  0  0  0  0  0  0  0  0  0  0  0
   -1.2043   -3.3107   -0.5797 O   0  0  0  0  0  0  0  0  0  0  0  0
   -3.6284    0.3919    0.4423 H   0  0  0  0  0  0  0  0  0  0  0  0
   -2.2916    0.9196    1.5242 H   0  0  0  0  0  0  0  0  0  0  0  0
   -3.0299   -1.9847    0.7627 H   0  0  0  0  0  0  0  0  0  0  0  0
   -0.6845   -0.9317    2.4959 H   0  0  0  0  0  0  0  0  0  0  0  0
   -0.9976   -2.6456    2.0590 H   0  0  0  0  0  0  0  0  0  0  0  0
   -5.8342   -1.4507    4.1633 H   0  0  0  0  0  0  0  0  0  0  0  0
   -5.7504   -1.6329    5.9389 H   0  0  0  0  0  0  0  0  0  0  0  0
   -4.7041   -2.6508    4.9081 H   0  0  0  0  0  0  0  0  0  0  0  0
   -2.3248   -0.0812    6.3721 H   0  0  0  0  0  0  0  0  0  0  0  0
   -2.7641   -1.8352    6.3442 H   0  0  0  0  0  0  0  0  0  0  0  0
   -3.7685   -0.6764    7.2605 H   0  0  0  0  0  0  0  0  0  0  0  0
   -2.3780    0.2761    3.9716 H   0  0  0  0  0  0  0  0  0  0  0  0
   -4.7330   -0.8000    2.2875 H   0  0  0  0  0  0  0  0  0  0  0  0
   -4.4446    0.9196    2.7255 H   0  0  0  0  0  0  0  0  0  0  0  0
   -3.1267   -2.6445    3.2766 H   0  0  0  0  0  0  0  0  0  0  0  0
   -1.7739   -2.1274    4.3436 H   0  0  0  0  0  0  0  0  0  0  0  0
   -0.0645   -3.8163   -2.8476 H   0  0  0  0  0  0  0  0  0  0  0  0
    1.7603   -3.4939   -4.4998 H   0  0  0  0  0  0  0  0  0  0  0  0
    3.0908    1.1766   -2.2574 H   0  0  0  0  0  0  0  0  0  0  0  0
    1.0153   -0.0399   -1.0015 H   0  0  0  0  0  0  0  0  0  0  0  0
    4.8191    2.3579   -3.1501 H   0  0  0  0  0  0  0  0  0  0  0  0
    6.6963    3.5835   -4.1419 H   0  0  0  0  0  0  0  0  0  0  0  0
    7.9039    2.6623   -6.0985 H   0  0  0  0  0  0  0  0  0  0  0  0
    7.2175    0.4880   -7.0672 H   0  0  0  0  0  0  0  0  0  0  0  0
    5.3392   -0.7680   -6.0975 H   0  0  0  0  0  0  0  0  0  0  0  0
   -1.1923   -0.0647   -0.4732 H   0  0  0  0  0  0  0  0  0  0  0  0
   -5.2407    0.6969    6.0283 H   0  0  0  0  0  0  0  0  0  0  0  0
  1  2  1  0
  2  3  1  0
  4  5  1  0
  5  6  1  0
  7  5  1  0
  1  8  1  0
  7  8  1  0
  3  9  1  0
  7  9  1  0
 10 11  1  0
 11 12  1  0
 12 13  2  0
 13 14  1  0
 15 16  2  0
 11 17  2  0
 15 18  1  0
 18 19  2  0
 19 20  1  0
 20 21  2  0
 21 22  1  0
 22 23  2  0
 18 23  1  0
 10 24  1  0
  2 24  1  0
 15 25  1  0
 14 25  2  0
 16 26  1  0
 14 26  1  0
 17 26  1  0
  5 27  1  0
 10 28  2  0
  1 29  1  0
  1 30  1  0
  2 31  1  6
  3 32  1  0
  3 33  1  0
  4 34  1  0
  4 35  1  0
  4 36  1  0
  6 37  1  0
  6 38  1  0
  6 39  1  0
  7 40  1  1
  8 41  1  0
  8 42  1  0
  9 43  1  0
  9 44  1  0
 12 45  1  0
 13 46  1  0
 16 47  1  0
 17 48  1  0
 19 49  1  0
 20 50  1  0
 21 51  1  0
 22 52  1  0
 23 53  1  0
 24 54  1  0
 27 55  1  0
M  END
