
     RDKit          3D

 31 33  0  0  0  0  0  0  0  0999 V2000
  -26.0464   -4.0841   11.4884 P   0  0  0  0  0  5  0  0  0  0  0  0
  -25.6639   -4.9467   12.6467 O   0  0  0  0  0  0  0  0  0  0  0  0
  -24.9883   -4.2530   10.3141 O   0  0  0  0  0  0  0  0  0  0  0  0
  -27.3528   -4.6900   10.8011 O   0  0  0  0  0  0  0  0  0  0  0  0
  -27.2023   -2.3226   13.1309 P   0  0  1  0  0  5  0  0  0  0  0  0
  -26.8649   -3.1381   14.3382 O   0  0  0  0  0  0  0  0  0  0  0  0
  -27.2100   -0.7677   13.5047 O   0  0  0  0  0  0  0  0  0  0  0  0
  -26.3512   -2.5545   11.8051 N   0  0  0  0  0  0  0  0  0  0  0  0
  -29.6296   -3.7854   13.1124 P   0  0  2  0  0  5  0  0  0  0  0  0
  -28.9711   -5.1236   13.0783 O   0  0  0  0  0  0  0  0  0  0  0  0
  -30.8136   -3.6993   12.0312 O   0  0  0  0  0  0  0  0  0  0  0  0
  -28.7416   -2.5221   12.7585 O   0  0  0  0  0  0  0  0  0  0  0  0
  -30.3932   -3.3956   14.4684 O   0  0  0  0  0  0  0  0  0  0  0  0
  -31.3379   -2.3336   14.4214 C   0  0  0  0  0  0  0  0  0  0  0  0
  -31.5472   -1.7673   15.8255 C   0  0  1  0  0  0  0  0  0  0  0  0
  -32.7617   -2.2931   16.4016 O   0  0  0  0  0  0  0  0  0  0  0  0
  -30.4385   -2.1540   16.7934 C   0  0  1  0  0  0  0  0  0  0  0  0
  -29.2721   -1.3577   16.6561 O   0  0  0  0  0  0  0  0  0  0  0  0
  -31.1238   -1.9512   18.1342 C   0  0  1  0  0  0  0  0  0  0  0  0
  -31.0874   -0.5502   18.4671 O   0  0  0  0  0  0  0  0  0  0  0  0
  -32.5620   -2.4093   17.8351 C   0  0  2  0  0  0  0  0  0  0  0  0
  -32.8269   -3.7809   18.2320 N   0  0  0  0  0  0  0  0  0  0  0  0
  -32.3995   -4.9284   17.6165 C   0  0  0  0  0  0  0  0  0  0  0  0
  -32.8256   -6.0103   18.2367 N   0  0  0  0  0  0  0  0  0  0  0  0
  -33.5797   -5.5386   19.2914 C   0  0  0  0  0  0  0  0  0  0  0  0
  -34.3035   -6.1853   20.3071 C   0  0  0  0  0  0  0  0  0  0  0  0
  -34.3774   -7.5674   20.4295 N   0  0  0  0  0  0  0  0  0  0  0  0
  -34.9782   -5.4277   21.2013 N   0  0  0  0  0  0  0  0  0  0  0  0
  -34.9071   -4.0835   21.0867 C   0  0  0  0  0  0  0  0  0  0  0  0
  -34.2366   -3.3533   20.1706 N   0  0  0  0  0  0  0  0  0  0  0  0
  -33.6011   -4.1533   19.2983 C   0  0  0  0  0  0  0  0  0  0  0  0
  1  2  2  0
  1  3  1  0
  1  4  1  0
  5  6  2  0
  5  7  1  1
  1  8  1  0
  5  8  1  0
  9 10  2  0
  9 11  1  6
  5 12  1  0
  9 12  1  0
  9 13  1  0
 13 14  1  0
 15 14  1  6
 15 16  1  0
 15 17  1  0
 17 18  1  1
 17 19  1  0
 19 20  1  6
 16 21  1  0
 19 21  1  0
 21 22  1  6
 22 23  4  0
 23 24  4  0
 24 25  4  0
 25 26  4  0
 26 27  1  0
 26 28  4  0
 28 29  4  0
 29 30  4  0
 22 31  4  0
 25 31  4  0
 30 31  4  0
M  END
