7TS6_KMI_A_803
     RDKit          3D

 34 35  0  0  0  0  0  0  0  0999 V2000
   -1.8004   -1.9871   -2.4179 C   0  0  0  0  0  0  0  0  0  0  0  0
   -0.9332   -0.7427   -0.5141 C   0  0  0  0  0  0  0  0  0  0  0  0
   -1.8514   -1.6564   -1.0619 C   0  0  0  0  0  0  0  0  0  0  0  0
   -0.8411   -1.4044   -3.2472 C   0  0  0  0  0  0  0  0  0  0  0  0
   -2.3385   -0.1648    2.8919 C   0  0  0  0  0  0  0  0  0  0  0  0
   -1.2168    0.2047    3.6413 C   0  0  0  0  0  0  0  0  0  0  0  0
    0.0406    0.2450    3.0265 C   0  0  0  0  0  0  0  0  0  0  0  0
    0.1482   -0.0504    1.6607 C   0  0  0  0  0  0  0  0  0  0  0  0
   -1.0003   -0.4066    0.9309 C   0  0  0  0  0  0  0  0  0  0  0  0
    1.2515    0.6632    3.8073 C   0  0  0  0  0  0  0  0  0  0  0  0
    0.0694   -0.4735   -2.7275 C   0  0  0  0  0  0  0  0  0  0  0  0
    0.0216   -0.1473   -1.3619 C   0  0  0  0  0  0  0  0  0  0  0  0
    1.1101    0.1430   -3.6251 C   0  0  0  0  0  0  0  0  0  0  0  0
    3.1000   -0.9942   -2.8402 C   0  0  0  0  0  0  0  0  0  0  0  0
   -2.2015   -0.4607    1.5718 N   0  0  0  0  0  0  0  0  0  0  0  0
   -3.6276   -0.2303    3.5021 N   0  0  0  0  0  0  0  0  0  0  0  0
    2.1570   -0.8346   -3.9509 N   0  0  0  0  0  0  0  0  0  0  0  0
   -2.5046   -2.7005   -2.8263 H   0  0  0  0  0  0  0  0  0  0  0  0
   -2.5995   -2.1288   -0.4372 H   0  0  0  0  0  0  0  0  0  0  0  0
   -0.8093   -1.6748   -4.2955 H   0  0  0  0  0  0  0  0  0  0  0  0
   -1.3220    0.4509    4.6911 H   0  0  0  0  0  0  0  0  0  0  0  0
    1.1212   -0.0262    1.1867 H   0  0  0  0  0  0  0  0  0  0  0  0
    1.3822    1.7624    3.7247 H   0  0  0  0  0  0  0  0  0  0  0  0
    1.1418    0.3911    4.8788 H   0  0  0  0  0  0  0  0  0  0  0  0
    2.1617    0.1596    3.4175 H   0  0  0  0  0  0  0  0  0  0  0  0
    0.7181    0.5839   -0.9725 H   0  0  0  0  0  0  0  0  0  0  0  0
    1.5455    1.0624   -3.1712 H   0  0  0  0  0  0  0  0  0  0  0  0
    0.6116    0.4670   -4.5655 H   0  0  0  0  0  0  0  0  0  0  0  0
    2.5845   -1.4091   -1.9482 H   0  0  0  0  0  0  0  0  0  0  0  0
    3.8959   -1.7100   -3.1352 H   0  0  0  0  0  0  0  0  0  0  0  0
    3.5793   -0.0246   -2.5806 H   0  0  0  0  0  0  0  0  0  0  0  0
   -4.4623   -0.5056    2.9385 H   0  0  0  0  0  0  0  0  0  0  0  0
   -3.7553   -0.0060    4.5141 H   0  0  0  0  0  0  0  0  0  0  0  0
    2.6987   -0.4594   -4.7646 H   0  0  0  0  0  0  0  0  0  0  0  0
  2  3  1  0
  1  3  2  0
  1  4  1  0
  5  6  2  0
  6  7  1  0
  7  8  2  0
  8  9  1  0
  2  9  1  0
  7 10  1  0
  4 11  2  0
  2 12  2  0
 11 12  1  0
 11 13  1  0
  9 15  2  0
  5 15  1  0
  5 16  1  0
 13 17  1  0
 14 17  1  0
  1 18  1  0
  3 19  1  0
  4 20  1  0
  6 21  1  0
  8 22  1  0
 10 23  1  0
 10 24  1  0
 10 25  1  0
 12 26  1  0
 13 27  1  0
 13 28  1  0
 14 29  1  0
 14 30  1  0
 14 31  1  0
 16 32  1  0
 16 33  1  0
 17 34  1  0
M  END
