7WPW_F15_A_200
     RDKit          3D

 17 16  0  0  0  0  0  0  0  0999 V2000
    5.7350  -16.5420   -1.6550 C   0  0  0  0  0  0  0  0  0  0  0  0
    4.7250  -16.2870   -0.9190 O   0  0  0  0  0  0  0  0  0  0  0  0
    6.8210  -15.9240   -1.5650 O   0  0  0  0  0  0  0  0  0  0  0  0
    5.5890  -17.6520   -2.6600 C   0  0  0  0  0  0  0  0  0  0  0  0
    6.8210  -18.0590   -3.3970 C   0  0  0  0  0  0  0  0  0  0  0  0
    7.9270  -19.6800   -4.9770 C   0  0  0  0  0  0  0  0  0  0  0  0
    7.7600  -20.6970   -6.0980 C   0  0  0  0  0  0  0  0  0  0  0  0
    6.6290  -19.1840   -4.3990 C   0  0  0  0  0  0  0  0  0  0  0  0
    6.9520  -21.9160   -5.7590 C   0  0  0  0  0  0  0  0  0  0  0  0
    7.5400  -22.7120   -4.6310 C   0  0  0  0  0  0  0  0  0  0  0  0
    6.6000  -23.8440   -4.2790 C   0  0  0  0  0  0  0  0  0  0  0  0
    7.1330  -24.8630   -3.3430 C   0  0  0  0  0  0  0  0  0  0  0  0
    7.4690  -24.3710   -2.0070 C   0  0  0  0  0  0  0  0  0  0  0  0
    6.6350  -23.2610   -1.4760 C   0  0  0  0  0  0  0  0  0  0  0  0
    6.9250  -23.2080   -0.0220 C   0  0  0  0  0  0  0  0  0  0  0  0
    6.6630  -21.8970    0.6910 C   0  0  0  0  0  0  0  0  0  0  0  0
    7.9190  -21.0550    0.6600 C   0  0  0  0  0  0  0  0  0  0  0  0
  1  2  1  0
  1  3  2  0
  1  4  1  0
  4  5  1  0
  6  7  1  0
  5  8  1  0
  6  8  1  0
  7  9  1  0
  9 10  1  0
 10 11  1  0
 11 12  1  0
 12 13  1  0
 13 14  1  0
 14 15  1  0
 15 16  1  0
 16 17  1  0
M  END
$$$$
