7P2W_4QR_A_301
     RDKit          3D

 49 52  0  0  0  0  0  0  0  0999 V2000
    0.7081   -1.3204   -2.4778 N   0  0  0  0  0  0  0  0  0  0  0  0
    1.9187    3.5527   -3.2539 N   0  0  0  0  0  4  0  0  0  0  0  0
   -1.0016   -3.0632   -2.1761 C   0  0  0  0  0  0  0  0  0  0  0  0
    0.1054   -2.4851   -2.8305 C   0  0  0  0  0  0  0  0  0  0  0  0
    0.6734   -3.1150   -3.9290 C   0  0  0  0  0  0  0  0  0  0  0  0
    1.7500   -1.0350   -3.2952 C   0  0  0  0  0  0  0  0  0  0  0  0
   -1.4676   -6.1938   -4.2996 C   0  0  0  0  0  0  0  0  0  0  0  0
   -1.2092   -0.3145   -1.9158 C   0  0  0  0  0  0  0  0  0  0  0  0
    0.1117    1.1567   -3.9066 C   0  0  0  0  0  0  0  0  0  0  0  0
   -0.8678    1.0303   -1.6922 C   0  0  0  0  0  0  0  0  0  0  0  0
    2.2348    1.2512   -2.3243 C   0  0  0  0  0  0  0  0  0  0  0  0
   -0.3030    3.6022   -3.5179 C   0  0  0  0  0  0  0  0  0  0  0  0
    0.8788    4.2997   -3.6736 C   0  0  0  0  0  0  0  0  0  0  0  0
    1.0084    5.7030   -4.1740 C   0  0  0  0  0  0  0  0  0  0  0  0
    0.1906   -4.3179   -4.4304 C   0  0  0  0  0  0  0  0  0  0  0  0
   -0.9171   -4.9158   -3.7969 C   0  0  0  0  0  0  0  0  0  0  0  0
   -1.5009   -4.2810   -2.6745 C   0  0  0  0  0  0  0  0  0  0  0  0
    1.9697   -2.2071   -4.4932 S   0  0  0  0  0  0  0  0  0  0  0  0
   -1.8052   -6.3331   -5.6434 O   0  0  0  0  0  0  0  0  0  0  0  0
   -1.6334   -7.1691   -3.5179 O   0  0  0  0  0  0  0  0  0  0  0  0
   -1.6381   -2.5030   -1.0551 O   0  0  0  0  0  0  0  0  0  0  0  0
   -1.9045   -1.1177   -0.8535 C   0  0  0  0  0  0  0  0  0  0  0  0
   -0.8810   -0.9145   -3.1405 C   0  0  0  0  0  0  0  0  0  0  0  0
   -0.2250   -0.1808   -4.1297 C   0  0  0  0  0  0  0  0  0  0  0  0
   -0.2046    1.7758   -2.6850 C   0  0  0  0  0  0  0  0  0  0  0  0
    0.1586    3.1914   -2.4514 C   0  0  0  0  0  0  0  0  0  0  0  0
   -0.6655    3.9827   -1.9170 O   0  0  0  0  0  0  0  0  0  0  0  0
    1.4176    3.6625   -2.8152 O   0  0  0  0  0  0  0  0  0  0  0  0
    2.5689    0.1347   -3.1667 N   0  0  0  0  0  0  0  0  0  0  0  0
    1.4147    2.3690   -2.8416 C   0  0  0  0  0  0  0  0  0  0  0  0
    0.0337    2.3691   -2.9983 C   0  0  0  0  0  0  0  0  0  0  0  0
    2.6492    1.2904   -1.1348 O   0  0  0  0  0  0  0  0  0  0  0  0
   -1.0936    1.0803   -2.6051 Cl  0  0  0  0  0  0  0  0  0  0  0  0
   -1.9190    4.1681   -3.9052 Cl  0  0  0  0  0  0  0  0  0  0  0  0
    2.9223    3.8408   -3.2739 H   0  0  0  0  0  0  0  0  0  0  0  0
    0.6196    1.7046   -4.6908 H   0  0  0  0  0  0  0  0  0  0  0  0
   -1.1166    1.4927   -0.7446 H   0  0  0  0  0  0  0  0  0  0  0  0
    2.0561    5.9059   -4.4813 H   0  0  0  0  0  0  0  0  0  0  0  0
    0.7236    6.4113   -3.3677 H   0  0  0  0  0  0  0  0  0  0  0  0
    0.3460    5.8571   -5.0512 H   0  0  0  0  0  0  0  0  0  0  0  0
    0.6646   -4.7726   -5.2913 H   0  0  0  0  0  0  0  0  0  0  0  0
   -2.3520   -4.7312   -2.1785 H   0  0  0  0  0  0  0  0  0  0  0  0
   -2.1786   -7.2055   -5.9979 H   0  0  0  0  0  0  0  0  0  0  0  0
   -3.0022   -0.9427   -0.8888 H   0  0  0  0  0  0  0  0  0  0  0  0
   -1.5167   -0.8002    0.1379 H   0  0  0  0  0  0  0  0  0  0  0  0
   -1.1326   -1.9515   -3.3268 H   0  0  0  0  0  0  0  0  0  0  0  0
    0.0239   -0.6496   -5.0728 H   0  0  0  0  0  0  0  0  0  0  0  0
    1.6753    4.6300   -2.6613 H   0  0  0  0  0  0  0  0  0  0  0  0
    3.4702    0.1439   -3.6921 H   0  0  0  0  0  0  0  0  0  0  0  0
  3  4  4  0
  1  4  4  0
  4  5  4  0
  1  6  4  0
  8 10  4  0
 12 13  4  0
  2 13  4  0
 13 14  1  0
  5 15  4  0
 15 16  4  0
  7 16  1  0
  3 17  4  0
 16 17  4  0
  6 18  4  0
  5 18  4  0
  7 19  1  0
  7 20  2  0
  3 21  1  0
  8 22  1  0
 21 22  1  0
  8 23  4  0
  9 24  4  0
 23 24  4  0
  9 25  4  0
 10 25  4  0
 25 26  1  0
 26 27  2  0
 26 28  1  0
  6 29  1  0
 11 29  1  0
 11 30  1  0
  2 30  4  0
 12 31  4  0
 30 31  4  0
 11 32  2  0
 31 33  1  0
 12 34  1  0
  2 35  1  0
  9 36  1  0
 10 37  1  0
 14 38  1  0
 14 39  1  0
 14 40  1  0
 15 41  1  0
 17 42  1  0
 19 43  1  0
 22 44  1  0
 22 45  1  0
 23 46  1  0
 24 47  1  0
 28 48  1  0
 29 49  1  0
M  CHG  1   2   1
M  END
