1TOW_CRZ_A_501
     RDKit          3D

 34 36  0  0  0  0  0  0  0  0999 V2000
    2.7621    2.5268    2.7357 O   0  0  0  0  0  0  0  0  0  0  0  0
    2.9889    2.8538    1.4018 C   0  0  0  0  0  0  0  0  0  0  0  0
    2.0817    3.4172    0.7332 O   0  0  0  0  0  0  0  0  0  0  0  0
    4.2860    2.4880    0.7422 C   0  0  0  0  0  0  0  0  0  0  0  0
    5.3639    2.0500    1.7483 C   0  0  0  0  0  0  0  0  0  0  0  0
    5.1061    0.6672    2.3694 C   0  0  0  0  0  0  0  0  0  0  0  0
    3.8202    0.1056    1.9388 N   0  0  0  0  0  4  0  0  0  0  0  0
    3.4204   -0.1386    0.6646 C   0  0  0  0  0  0  0  0  0  0  0  0
    4.1447    0.0553   -0.5163 C   0  0  0  0  0  0  0  0  0  0  0  0
    2.1308   -0.6309    0.6324 C   0  0  0  0  0  0  0  0  0  0  0  0
    1.4876   -0.9498   -0.5620 C   0  0  0  0  0  0  0  0  0  0  0  0
    2.1987   -0.7583   -1.7593 C   0  0  0  0  0  0  0  0  0  0  0  0
    3.5194   -0.2597   -1.7365 C   0  0  0  0  0  0  0  0  0  0  0  0
    1.7096   -0.7004    1.9402 C   0  0  0  0  0  0  0  0  0  0  0  0
    2.7609   -0.2470    2.7140 C   0  0  0  0  0  0  0  0  0  0  0  0
    2.6450   -0.1747    4.1075 C   0  0  0  0  0  0  0  0  0  0  0  0
    0.4985   -1.1074    2.4965 C   0  0  0  0  0  0  0  0  0  0  0  0
    0.3665   -1.0449    3.8941 C   0  0  0  0  0  0  0  0  0  0  0  0
    1.4326   -0.5807    4.6941 C   0  0  0  0  0  0  0  0  0  0  0  0
    1.8884    2.7673    3.1883 H   0  0  0  0  0  0  0  0  0  0  0  0
    4.0843    1.6443    0.0484 H   0  0  0  0  0  0  0  0  0  0  0  0
    4.6611    3.3381    0.1314 H   0  0  0  0  0  0  0  0  0  0  0  0
    5.3748    2.7902    2.5776 H   0  0  0  0  0  0  0  0  0  0  0  0
    6.3714    2.0843    1.2818 H   0  0  0  0  0  0  0  0  0  0  0  0
    5.9223   -0.0209    2.0611 H   0  0  0  0  0  0  0  0  0  0  0  0
    5.1607    0.7337    3.4753 H   0  0  0  0  0  0  0  0  0  0  0  0
    5.1577    0.4339   -0.5040 H   0  0  0  0  0  0  0  0  0  0  0  0
    0.4750   -1.3315   -0.5719 H   0  0  0  0  0  0  0  0  0  0  0  0
    1.7305   -0.9956   -2.7056 H   0  0  0  0  0  0  0  0  0  0  0  0
    4.0559   -0.1188   -2.6657 H   0  0  0  0  0  0  0  0  0  0  0  0
    3.4495    0.1894    4.7301 H   0  0  0  0  0  0  0  0  0  0  0  0
   -0.3167   -1.4573    1.8766 H   0  0  0  0  0  0  0  0  0  0  0  0
   -0.5608   -1.3520    4.3600 H   0  0  0  0  0  0  0  0  0  0  0  0
    1.3149   -0.5334    5.7689 H   0  0  0  0  0  0  0  0  0  0  0  0
  1  2  1  0
  2  3  2  0
  2  4  1  0
  4  5  1  0
  5  6  1  0
  6  7  1  0
  7  8  4  0
  8  9  4  0
  8 10  4  0
 10 11  4  0
 11 12  4  0
  9 13  4  0
 12 13  4  0
 10 14  4  0
  7 15  4  0
 14 15  4  0
 15 16  4  0
 14 17  4  0
 17 18  4  0
 16 19  4  0
 18 19  4  0
  1 20  1  0
  4 21  1  0
  4 22  1  0
  5 23  1  0
  5 24  1  0
  6 25  1  0
  6 26  1  0
  9 27  1  0
 11 28  1  0
 12 29  1  0
 13 30  1  0
 16 31  1  0
 17 32  1  0
 18 33  1  0
 19 34  1  0
M  CHG  1   7   1
M  END
