7TXP_0FX_A_301
     RDKit          3D

 35 37  0  0  0  0  0  0  0  0999 V2000
   -9.1648  -13.8187   37.0941 O   0  0  0  0  0  0  0  0  0  0  0  0
   -9.6774  -13.0668   38.5162 P   0  0  1  0  0  0  0  0  0  0  0  0
  -11.0547  -12.5294   38.2571 O   0  0  0  0  0  0  0  0  0  0  0  0
   -9.8505  -14.2257   39.7605 O   0  0  0  0  0  0  0  0  0  0  0  0
   -8.7250  -15.0370   39.7433 C   0  0  2  0  0  0  0  0  0  0  0  0
   -8.9869  -16.2396   40.6062 C   0  0  2  0  0  0  0  0  0  0  0  0
  -10.3245  -16.3424   40.9634 O   0  0  0  0  0  0  0  0  0  0  0  0
   -8.1018  -16.0559   41.8446 C   0  0  1  0  0  0  0  0  0  0  0  0
   -8.3772  -17.0896   42.7066 O   0  0  0  0  0  0  0  0  0  0  0  0
   -6.6561  -16.1048   41.3528 C   0  0  2  0  0  0  0  0  0  0  0  0
   -5.7478  -15.8856   42.4502 N   0  0  0  0  0  0  0  0  0  0  0  0
   -6.4860  -15.0721   40.2803 C   0  0  1  0  0  0  0  0  0  0  0  0
   -6.1308  -15.7161   38.9538 C   0  0  0  0  0  0  0  0  0  0  0  0
   -7.6336  -14.2884   40.1457 O   0  0  0  0  0  0  0  0  0  0  0  0
   -8.6156  -11.8908   39.0646 O   0  0  0  0  0  0  0  0  0  0  0  0
   -7.5427  -11.3861   37.8679 P   0  0  2  0  0  0  0  0  0  0  0  0
   -8.3882  -10.9124   36.4793 O   0  0  0  0  0  0  0  0  0  0  0  0
   -6.7518  -12.6369   37.4719 O   0  0  0  0  0  0  0  0  0  0  0  0
   -6.4488  -10.2341   38.3728 O   0  0  0  0  0  0  0  0  0  0  0  0
   -7.0178   -9.1454   38.9890 C   0  0  0  0  0  0  0  0  0  0  0  0
   -6.6117   -9.1583   40.4384 C   0  0  1  0  0  0  0  0  0  0  0  0
   -7.2843  -10.1471   41.1785 O   0  0  0  0  0  0  0  0  0  0  0  0
   -5.1879   -9.6274   40.6608 C   0  0  1  0  0  0  0  0  0  0  0  0
   -4.2489   -8.6974   40.2631 O   0  0  0  0  0  0  0  0  0  0  0  0
   -5.2147   -9.7963   42.1861 C   0  0  0  0  0  0  0  0  0  0  0  0
   -6.7094   -9.9635   42.4342 C   0  0  2  0  0  0  0  0  0  0  0  0
   -6.8758  -11.1001   43.3135 N   0  0  0  0  0  0  0  0  0  0  0  0
   -7.1904  -12.3286   42.8915 C   0  0  0  0  0  0  0  0  0  0  0  0
   -7.3471  -13.4046   43.7326 C   0  0  0  0  0  0  0  0  0  0  0  0
   -7.6991  -14.7555   43.2067 C   0  0  0  0  0  0  0  0  0  0  0  0
   -6.7072  -10.9346   44.6562 C   0  0  0  0  0  0  0  0  0  0  0  0
   -6.4084   -9.7810   45.0868 O   0  0  0  0  0  0  0  0  0  0  0  0
   -6.8477  -11.9501   45.5253 N   0  0  0  0  0  0  0  0  0  0  0  0
   -7.1682  -13.2024   45.0973 C   0  0  0  0  0  0  0  0  0  0  0  0
   -7.2989  -14.1581   45.9307 O   0  0  0  0  0  0  0  0  0  0  0  0
  2  1  1  6
  2  3  2  0
  2  4  1  0
  5  4  1  1
  5  6  1  0
  6  7  1  1
  6  8  1  0
  8  9  1  1
  8 10  1  0
 10 11  1  1
 10 12  1  0
 12 13  1  6
 12 14  1  0
  5 14  1  0
  2 15  1  0
 15 16  1  0
 16 17  1  6
 16 18  2  0
 16 19  1  0
 19 20  1  0
 21 20  1  6
 21 22  1  0
 21 23  1  0
 23 24  1  1
 23 25  1  0
 25 26  1  0
 22 26  1  0
 26 27  1  1
 27 28  1  0
 28 29  2  0
 29 30  1  0
 27 31  1  0
 31 32  2  0
 31 33  1  0
 33 34  1  0
 29 34  1  0
 34 35  2  0
M  END
$$$$
