7E4L_MDN_A_301
     RDKit          3D

 15 14  0  0  0  0  0  0  0  0999 V2000
  -12.6416   -3.2069  -13.2624 O   0  0  0  0  0  0  0  0  0  0  0  0
  -13.3655   -3.2415  -14.7927 P   0  0  2  0  0  5  0  0  0  0  0  0
  -12.5664   -2.3763  -15.7402 O   0  0  0  0  0  0  0  0  0  0  0  0
  -14.9420   -2.6348  -14.6902 O   0  0  0  0  0  0  0  0  0  0  0  0
  -13.3959   -4.9457  -15.4303 C   0  0  1  0  0  0  0  0  0  0  0  0
  -14.5317   -5.9816  -14.4575 P   0  0  1  0  0  5  0  0  0  0  0  0
  -14.0417   -6.0810  -13.0306 O   0  0  0  0  0  0  0  0  0  0  0  0
  -16.0861   -5.3127  -14.4737 O   0  0  0  0  0  0  0  0  0  0  0  0
  -14.5820   -7.5293  -15.1392 O   0  0  0  0  0  0  0  0  0  0  0  0
  -13.2111   -3.7892  -12.6989 H   0  0  0  0  0  0  0  0  0  0  0  0
  -15.4362   -3.0841  -15.4214 H   0  0  0  0  0  0  0  0  0  0  0  0
  -13.7276   -4.9350  -16.4888 H   0  0  0  0  0  0  0  0  0  0  0  0
  -12.3741   -5.3745  -15.3756 H   0  0  0  0  0  0  0  0  0  0  0  0
  -16.1584   -4.8223  -13.6164 H   0  0  0  0  0  0  0  0  0  0  0  0
  -14.5819   -7.3745  -16.1175 H   0  0  0  0  0  0  0  0  0  0  0  0
  2  1  1  1
  2  3  2  0
  2  4  1  0
  2  5  1  0
  5  6  1  0
  6  7  2  0
  6  8  1  1
  6  9  1  0
  1 10  1  0
  4 11  1  0
  5 12  1  6
  5 13  1  0
  8 14  1  0
  9 15  1  0
M  END
