7E4L_MDN_A_301
     RDKit          3D

 15 14  0  0  0  0  0  0  0  0999 V2000
   -2.1894    6.9604   -7.0345 O   0  0  0  0  0  0  0  0  0  0  0  0
   -3.3224    6.5862   -6.1088 P   0  0  2  0  0  5  0  0  0  0  0  0
   -4.2143    5.4920   -6.7080 O   0  0  0  0  0  0  0  0  0  0  0  0
   -4.1321    7.7861   -5.6693 O   0  0  0  0  0  0  0  0  0  0  0  0
   -2.6288    5.7681   -4.6471 C   0  0  0  0  0  0  0  0  0  0  0  0
   -1.2473    6.5483   -3.7524 P   0  0  2  0  0  5  0  0  0  0  0  0
   -1.3978    6.2200   -2.3023 O   0  0  0  0  0  0  0  0  0  0  0  0
   -1.4519    8.0135   -4.0106 O   0  0  0  0  0  0  0  0  0  0  0  0
    0.0486    6.0744   -4.3100 O   0  0  0  0  0  0  0  0  0  0  0  0
   -2.5459    7.3998   -7.8223 H   0  0  0  0  0  0  0  0  0  0  0  0
   -4.5056    8.2276   -6.4481 H   0  0  0  0  0  0  0  0  0  0  0  0
   -3.4300    5.6508   -3.9446 H   0  0  0  0  0  0  0  0  0  0  0  0
   -2.1963    4.8752   -5.0432 H   0  0  0  0  0  0  0  0  0  0  0  0
   -2.3024    8.2900   -3.6361 H   0  0  0  0  0  0  0  0  0  0  0  0
    0.1499    5.1283   -4.1273 H   0  0  0  0  0  0  0  0  0  0  0  0
  2  1  1  1
  2  3  2  0
  2  4  1  0
  2  5  1  0
  5  6  1  0
  6  7  2  0
  6  8  1  6
  6  9  1  0
  1 10  1  0
  4 11  1  0
  5 12  1  0
  5 13  1  0
  8 14  1  0
  9 15  1  0
M  END
