8EXL_799_A_1101
     RDKit          3D

 34 38  0  0  0  0  0  0  0  0999 V2000
  -13.9719    8.1085   23.4570 C   0  0  0  0  0  0  0  0  0  0  0  0
  -13.4842    8.7414   24.6976 C   0  0  2  0  0  0  0  0  0  0  0  0
  -12.4365    9.7726   24.3074 C   0  0  0  0  0  0  0  0  0  0  0  0
  -12.7752    7.7378   25.5941 C   0  0  0  0  0  0  0  0  0  0  0  0
  -14.5024   10.5404   26.1254 C   0  0  0  0  0  0  0  0  0  0  0  0
  -16.2248   11.8165   27.5143 C   0  0  0  0  0  0  0  0  0  0  0  0
  -14.5313   15.7454   29.8394 C   0  0  0  0  0  0  0  0  0  0  0  0
  -15.6341   16.7564   29.8177 C   0  0  0  0  0  0  0  0  0  0  0  0
  -17.8119   16.9075   30.9386 C   0  0  0  0  0  0  0  0  0  0  0  0
  -16.9835   13.9826   29.0615 C   0  0  0  0  0  0  0  0  0  0  0  0
  -17.9213   13.0108   28.7421 C   0  0  0  0  0  0  0  0  0  0  0  0
  -21.9515   15.1592   31.0612 C   0  0  1  0  0  0  0  0  0  0  0  0
  -22.5933   14.0306   31.7813 C   0  0  0  0  0  0  0  0  0  0  0  0
  -23.0467   15.8284   30.2234 C   0  0  0  0  0  0  0  0  0  0  0  0
  -15.3415    7.6838   23.4302 N   0  0  0  0  0  0  0  0  0  0  0  0
  -13.2082    7.9494   22.4597 O   0  0  0  0  0  0  0  0  0  0  0  0
  -14.5528    9.3631   25.4621 N   0  0  0  0  0  0  0  0  0  0  0  0
  -15.7612   10.6918   26.6881 C   0  0  0  0  0  0  0  0  0  0  0  0
  -16.5418    9.5972   26.3481 C   0  0  0  0  0  0  0  0  0  0  0  0
  -15.7448    8.8117   25.5922 N   0  0  0  0  0  0  0  0  0  0  0  0
  -15.2764   12.7766   27.8236 C   0  0  0  0  0  0  0  0  0  0  0  0
  -15.6755   13.8327   28.5864 C   0  0  0  0  0  0  0  0  0  0  0  0
  -14.6632   14.7493   28.8503 O   0  0  0  0  0  0  0  0  0  0  0  0
  -16.9286   16.2343   30.1751 N   0  0  0  0  0  0  0  0  0  0  0  0
  -18.9565   16.1748   31.1194 C   0  0  0  0  0  0  0  0  0  0  0  0
  -18.7635   15.0200   30.4449 N   0  0  0  0  0  0  0  0  0  0  0  0
  -17.5552   15.0661   29.8874 C   0  0  0  0  0  0  0  0  0  0  0  0
  -17.5230   11.9237   27.9604 C   0  0  0  0  0  0  0  0  0  0  0  0
  -20.1138   16.6104   31.8891 C   0  0  0  0  0  0  0  0  0  0  0  0
  -20.0291   17.6083   32.8183 N   0  0  0  0  0  0  0  0  0  0  0  0
  -21.2702   17.7641   33.3461 C   0  0  0  0  0  0  0  0  0  0  0  0
  -21.5362   18.7854   34.4034 C   0  0  0  0  0  0  0  0  0  0  0  0
  -22.0735   16.8934   32.7580 N   0  0  0  0  0  0  0  0  0  0  0  0
  -21.3764   16.1838   31.8662 N   0  0  0  0  0  0  0  0  0  0  0  0
  1  2  1  0
  2  3  1  6
  2  4  1  0
  7  8  1  0
 10 11  2  0
 12 13  1  1
 12 14  1  0
  1 15  1  0
  1 16  2  0
  5 17  1  0
  2 17  1  0
  6 18  1  0
  5 18  2  0
 18 19  1  0
 19 20  2  0
 17 20  1  0
  6 21  1  0
 10 22  1  0
 21 22  2  0
 22 23  1  0
  7 23  1  0
  9 24  1  0
  8 24  1  0
  9 25  2  0
 25 26  1  0
 26 27  2  0
 24 27  1  0
 10 27  1  0
 11 28  1  0
  6 28  2  0
 25 29  1  0
 29 30  2  0
 30 31  1  0
 31 32  1  0
 31 33  2  0
 33 34  1  0
 12 34  1  0
 29 34  1  0
M  END
$$$$
