7N4N_0BK_A_401
     RDKit          3D

 32 34  0  0  0  0  0  0  0  0999 V2000
   25.8910  -13.0135  -25.4709 C   0  0  0  0  0  0  0  0  0  0  0  0
   24.6752  -12.4723  -23.3798 C   0  0  0  0  0  0  0  0  0  0  0  0
   23.9616  -11.4870  -22.7218 C   0  0  0  0  0  0  0  0  0  0  0  0
   23.4162  -11.7702  -21.4848 C   0  0  0  0  0  0  0  0  0  0  0  0
   24.3145  -13.9547  -21.6448 C   0  0  0  0  0  0  0  0  0  0  0  0
   21.2825   -9.9848  -18.9491 C   0  0  0  0  0  0  0  0  0  0  0  0
   19.6161   -8.0818  -17.8977 C   0  0  0  0  0  0  0  0  0  0  0  0
   20.8623   -7.6704  -18.3851 C   0  0  0  0  0  0  0  0  0  0  0  0
   21.6645   -8.6375  -18.8995 C   0  0  0  0  0  0  0  0  0  0  0  0
   21.1926   -6.2285  -18.2993 C   0  0  2  0  0  0  0  0  0  0  0  0
   22.0142   -5.4744  -20.5766 C   0  0  0  0  0  0  0  0  0  0  0  0
   23.3265   -5.0790  -19.9566 C   0  0  2  0  0  0  0  0  0  0  0  0
   22.2398   -2.3871  -19.5322 C   0  0  0  0  0  0  0  0  0  0  0  0
   25.2057  -12.1450  -24.6195 O   0  0  0  0  0  0  0  0  0  0  0  0
   23.6053  -13.0011  -20.9724 N   0  0  0  0  0  0  0  0  0  0  0  0
   24.8563  -13.7030  -22.8524 N   0  0  0  0  0  0  0  0  0  0  0  0
   22.6706  -10.7248  -20.8084 C   0  0  0  0  0  0  0  0  0  0  0  0
   22.4412   -9.5918  -21.3108 O   0  0  0  0  0  0  0  0  0  0  0  0
   22.1584  -10.9712  -19.4994 N   0  0  0  0  0  0  0  0  0  0  0  0
   20.0563  -10.3962  -18.4706 C   0  0  0  0  0  0  0  0  0  0  0  0
   19.2350   -9.4204  -17.9463 C   0  0  0  0  0  0  0  0  0  0  0  0
   18.7271   -7.2273  -17.3593 F   0  0  0  0  0  0  0  0  0  0  0  0
   20.2685   -5.5457  -17.2729 C   0  0  0  0  0  0  0  0  0  0  0  0
   20.8544   -4.4646  -16.6825 F   0  0  0  0  0  0  0  0  0  0  0  0
   20.8899   -5.5211  -19.5936 C   0  0  0  0  0  0  0  0  0  0  0  0
   24.4359   -5.7741  -20.7274 C   0  0  0  0  0  0  0  0  0  0  0  0
   23.4531   -5.4902  -18.5570 C   0  0  0  0  0  0  0  0  0  0  0  0
   24.7321   -5.3201  -17.9298 N   0  0  0  0  0  0  0  0  0  0  0  0
   22.5245   -5.9926  -17.8289 N   0  0  0  0  0  0  0  0  0  0  0  0
   23.5893   -3.3179  -20.1590 S   0  0  2  0  0  0  0  0  0  0  0  0
   23.7115   -3.0440  -21.6399 O   0  0  0  0  0  0  0  0  0  0  0  0
   24.8485   -2.8787  -19.5141 O   0  0  0  0  0  0  0  0  0  0  0  0
  2  3  2  0
  3  4  1  0
  7  8  2  0
  8  9  1  0
  6  9  2  0
  8 10  1  0
 11 12  1  0
  2 14  1  0
  1 14  1  0
  4 15  2  0
  5 15  1  0
  2 16  1  0
  5 16  2  0
  4 17  1  0
 17 18  2  0
  6 19  1  0
 17 19  1  0
  6 20  1  0
  7 21  1  0
 20 21  2  0
  7 22  1  0
 10 23  1  1
 23 24  1  0
 11 25  1  0
 10 25  1  0
 12 26  1  6
 12 27  1  0
 27 28  1  0
 27 29  2  0
 10 29  1  0
 30 13  1  1
 12 30  1  0
 30 31  2  0
 30 32  2  0
M  END
$$$$
