1N1M_A3M_A_954
     RDKit          3D

 12 12  0  0  0  0  0  0  0  0999 V2000
  119.1817   61.9314  102.8471 C   0  0  0  0  0  0  0  0  0  0  0  0
  119.4069   62.6415  101.5009 C   0  0  0  0  0  0  0  0  0  0  0  0
  120.6741   62.0646  101.0218 N   0  0  0  0  0  0  0  0  0  0  0  0
  121.1853   61.1309  102.0068 C   0  0  0  0  0  0  0  0  0  0  0  0
  119.9068   60.5965  102.6086 C   0  0  0  0  0  0  0  0  0  0  0  0
  121.3462   62.3391   99.8029 C   0  0  0  0  0  0  0  0  0  0  0  0
  122.5653   61.6011   99.3588 C   0  0  2  0  0  0  0  0  0  0  0  0
  123.7744   62.5125   99.2816 C   0  0  1  0  0  0  0  0  0  0  0  0
  124.1518   62.9060  100.6934 C   0  0  0  0  0  0  0  0  0  0  0  0
  120.9443   63.2439   99.0033 O   0  0  0  0  0  0  0  0  0  0  0  0
  122.3000   61.0048   98.0835 N   0  0  0  0  0  0  0  0  0  0  0  0
  124.9680   61.8023   98.6832 C   0  0  0  0  0  0  0  0  0  0  0  0
  1  2  1  1
  2  3  1  6
  4  3  1  6
  1  5  1  0
  5  4  1  6
  3  6  1  0
  6  7  1  0
  7  8  1  0
  8  9  1  1
  6 10  2  0
  7 11  1  6
 12  8  1  6
M  END
$$$$
