7OCB_V88_B_301
     RDKit          3D

 88 92  0  0  0  0  0  0  0  0999 V2000
   -4.6986  -36.4526   -8.0343 N   0  0  0  0  0  0  0  0  0  0  0  0
  -13.0948  -38.4750  -10.1139 N   0  0  0  0  0  0  0  0  0  0  0  0
   -9.6808  -37.4802   -9.1717 C   0  0  0  0  0  0  0  0  0  0  0  0
   -7.1565  -37.0015   -9.1282 C   0  0  2  0  0  0  0  0  0  0  0  0
   -6.6499  -38.0474   -8.1255 C   0  0  2  0  0  0  0  0  0  0  0  0
   -5.4374  -37.5258   -7.3261 C   0  0  2  0  0  0  0  0  0  0  0  0
   -3.3851  -36.1741   -7.3915 C   0  0  2  0  0  0  0  0  0  0  0  0
   -3.5964  -35.4684   -6.0437 C   0  0  1  0  0  0  0  0  0  0  0  0
  -12.0015  -37.9460   -9.3482 C   0  0  0  0  0  0  0  0  0  0  0  0
  -13.3573  -40.8726  -10.6456 C   0  0  1  0  0  0  0  0  0  0  0  0
  -15.5581  -40.7980  -11.6463 C   0  0  1  0  0  0  0  0  0  0  0  0
  -10.3717  -35.8831   -5.3239 C   0  0  0  0  0  0  0  0  0  0  0  0
  -11.5657  -35.8178   -3.0982 C   0  0  1  0  0  0  0  0  0  0  0  0
  -10.9974  -36.7565   -2.0236 C   0  0  1  0  0  0  0  0  0  0  0  0
  -11.4222  -39.5940   -2.8586 C   0  0  1  0  0  0  0  0  0  0  0  0
  -11.8595  -41.6158   -4.4165 C   0  0  0  0  0  0  0  0  0  0  0  0
   -9.8989  -42.9705   -4.9339 C   0  0  0  0  0  0  0  0  0  0  0  0
   -8.3813  -37.5000   -9.7764 N   0  0  0  0  0  0  0  0  0  0  0  0
   -6.7523  -34.9669   -5.5631 C   0  0  2  0  0  0  0  0  0  0  0  0
   -8.0317  -35.3393   -5.0688 O   0  0  0  0  0  0  0  0  0  0  0  0
   -9.0721  -35.8499   -5.8615 C   0  0  0  0  0  0  0  0  0  0  0  0
   -4.6263  -36.7031   -9.4883 C   0  0  2  0  0  0  0  0  0  0  0  0
   -6.0275  -36.6174  -10.1232 C   0  0  1  0  0  0  0  0  0  0  0  0
  -12.9098  -39.4883  -11.1507 C   0  0  1  0  0  0  0  0  0  0  0  0
  -15.2059  -42.1287   -9.6764 C   0  0  1  0  0  0  0  0  0  0  0  0
  -11.1880  -36.9258   -7.3695 C   0  0  0  0  0  0  0  0  0  0  0  0
  -11.4312  -36.4120   -6.0916 C   0  0  0  0  0  0  0  0  0  0  0  0
   -8.8393  -36.3423   -7.1575 C   0  0  0  0  0  0  0  0  0  0  0  0
   -9.8782  -37.6849   -2.5232 C   0  0  1  0  0  0  0  0  0  0  0  0
  -11.0431  -40.7990   -3.6264 C   0  0  0  0  0  0  0  0  0  0  0  0
  -11.2764  -42.7130   -5.0779 C   0  0  0  0  0  0  0  0  0  0  0  0
   -9.1048  -42.1299   -4.1306 C   0  0  0  0  0  0  0  0  0  0  0  0
   -9.8842  -36.9113   -7.9010 C   0  0  0  0  0  0  0  0  0  0  0  0
   -9.7124  -41.0477   -3.4882 C   0  0  0  0  0  0  0  0  0  0  0  0
   -9.0769  -40.0148   -2.6475 C   0  0  1  0  0  0  0  0  0  0  0  0
   -2.4077  -35.3771   -8.2817 C   0  0  1  0  0  0  0  0  0  0  0  0
  -10.7440  -37.9644   -9.8675 N   0  0  0  0  0  0  0  0  0  0  0  0
  -14.8135  -40.8948  -10.3820 N   0  0  0  0  0  0  0  0  0  0  0  0
  -12.2103  -37.4372   -8.1029 N   0  0  0  0  0  0  0  0  0  0  0  0
  -10.1734  -39.1045   -2.2169 N   0  0  0  0  0  0  0  0  0  0  0  0
  -10.5604  -35.3877   -4.0205 O   0  0  0  0  0  0  0  0  0  0  0  0
  -14.0534  -38.0810   -9.9619 H   0  0  0  0  0  0  0  0  0  0  0  0
   -7.4269  -36.0834   -8.5569 H   0  0  0  0  0  0  0  0  0  0  0  0
   -6.3571  -38.9700   -8.6751 H   0  0  0  0  0  0  0  0  0  0  0  0
   -7.4648  -38.3216   -7.4214 H   0  0  0  0  0  0  0  0  0  0  0  0
   -5.8037  -37.1169   -6.3597 H   0  0  0  0  0  0  0  0  0  0  0  0
   -4.7734  -38.3876   -7.0926 H   0  0  0  0  0  0  0  0  0  0  0  0
   -2.8857  -37.1414   -7.1488 H   0  0  0  0  0  0  0  0  0  0  0  0
   -2.8080  -35.7862   -5.3244 H   0  0  0  0  0  0  0  0  0  0  0  0
   -3.5450  -34.3645   -6.1499 H   0  0  0  0  0  0  0  0  0  0  0  0
   -4.5847  -35.7481   -5.6181 H   0  0  0  0  0  0  0  0  0  0  0  0
  -13.0995  -41.6176  -11.4319 H   0  0  0  0  0  0  0  0  0  0  0  0
  -12.7785  -41.1476   -9.7315 H   0  0  0  0  0  0  0  0  0  0  0  0
  -14.9846  -40.1967  -12.3840 H   0  0  0  0  0  0  0  0  0  0  0  0
  -15.7516  -41.8061  -12.0765 H   0  0  0  0  0  0  0  0  0  0  0  0
  -16.5266  -40.2768  -11.4872 H   0  0  0  0  0  0  0  0  0  0  0  0
  -12.3882  -36.3209   -3.6465 H   0  0  0  0  0  0  0  0  0  0  0  0
  -12.0183  -34.9265   -2.6161 H   0  0  0  0  0  0  0  0  0  0  0  0
  -10.5677  -36.1180   -1.2230 H   0  0  0  0  0  0  0  0  0  0  0  0
  -11.8064  -37.3542   -1.5580 H   0  0  0  0  0  0  0  0  0  0  0  0
  -11.8935  -38.8540   -3.5422 H   0  0  0  0  0  0  0  0  0  0  0  0
  -12.1443  -39.8847   -2.0691 H   0  0  0  0  0  0  0  0  0  0  0  0
  -12.9179  -41.4135   -4.5207 H   0  0  0  0  0  0  0  0  0  0  0  0
   -9.4531  -43.8195   -5.4352 H   0  0  0  0  0  0  0  0  0  0  0  0
   -8.2495  -38.1851  -10.5581 H   0  0  0  0  0  0  0  0  0  0  0  0
   -5.9676  -35.2043   -4.8169 H   0  0  0  0  0  0  0  0  0  0  0  0
   -6.7424  -33.8832   -5.8022 H   0  0  0  0  0  0  0  0  0  0  0  0
   -6.5525  -35.5357   -6.4934 H   0  0  0  0  0  0  0  0  0  0  0  0
   -4.2012  -37.7149   -9.6785 H   0  0  0  0  0  0  0  0  0  0  0  0
   -3.9698  -35.9619   -9.9895 H   0  0  0  0  0  0  0  0  0  0  0  0
   -6.0154  -37.2820  -11.0044 H   0  0  0  0  0  0  0  0  0  0  0  0
   -6.2090  -35.5828  -10.4906 H   0  0  0  0  0  0  0  0  0  0  0  0
  -13.5154  -39.2008  -12.0359 H   0  0  0  0  0  0  0  0  0  0  0  0
  -11.8426  -39.5153  -11.4656 H   0  0  0  0  0  0  0  0  0  0  0  0
  -16.1346  -41.9572   -9.0890 H   0  0  0  0  0  0  0  0  0  0  0  0
  -15.3819  -42.9663  -10.3875 H   0  0  0  0  0  0  0  0  0  0  0  0
  -14.4250  -42.4265   -8.9496 H   0  0  0  0  0  0  0  0  0  0  0  0
  -12.4453  -36.4309   -5.7133 H   0  0  0  0  0  0  0  0  0  0  0  0
   -7.8430  -36.2998   -7.5748 H   0  0  0  0  0  0  0  0  0  0  0  0
   -9.6690  -37.5245   -3.6052 H   0  0  0  0  0  0  0  0  0  0  0  0
   -8.9617  -37.3619   -1.9788 H   0  0  0  0  0  0  0  0  0  0  0  0
  -11.8891  -43.3611   -5.6980 H   0  0  0  0  0  0  0  0  0  0  0  0
   -8.0453  -42.3211   -4.0124 H   0  0  0  0  0  0  0  0  0  0  0  0
   -8.6202  -40.4857   -1.7578 H   0  0  0  0  0  0  0  0  0  0  0  0
   -8.2897  -39.5066   -3.2475 H   0  0  0  0  0  0  0  0  0  0  0  0
   -1.3711  -35.7538   -8.1346 H   0  0  0  0  0  0  0  0  0  0  0  0
   -2.6641  -35.4962   -9.3523 H   0  0  0  0  0  0  0  0  0  0  0  0
   -2.4239  -34.2982   -8.0223 H   0  0  0  0  0  0  0  0  0  0  0  0
  4  5  1  0
  1  6  1  0
  5  6  1  0
  1  7  1  0
  7  8  1  0
  2  9  1  0
 13 14  1  0
  4 18  1  0
  3 18  1  0
 19 20  1  0
 12 21  1  0
 20 21  1  0
  1 22  1  0
  4 23  1  0
 22 23  1  0
 10 24  1  0
  2 24  1  0
 26 27  1  0
 12 27  2  0
 21 28  2  0
 14 29  1  0
 15 30  1  0
 16 30  2  0
 17 31  2  0
 16 31  1  0
 17 32  1  0
  3 33  2  0
 26 33  1  0
 28 33  1  0
 32 34  2  0
 30 34  1  0
 34 35  1  0
  7 36  1  0
  9 37  2  0
  3 37  1  0
 25 38  1  0
 11 38  1  0
 10 38  1  0
  9 39  1  0
 26 39  2  0
 35 40  1  0
 29 40  1  0
 15 40  1  0
 12 41  1  0
 13 41  1  0
  2 42  1  0
  4 43  1  1
  5 44  1  6
  5 45  1  0
  6 46  1  1
  6 47  1  0
  7 48  1  1
  8 49  1  1
  8 50  1  0
  8 51  1  0
 10 52  1  6
 10 53  1  0
 11 54  1  6
 11 55  1  0
 11 56  1  0
 13 57  1  6
 13 58  1  0
 14 59  1  1
 14 60  1  0
 15 61  1  6
 15 62  1  0
 16 63  1  0
 17 64  1  0
 18 65  1  0
 19 66  1  1
 19 67  1  0
 19 68  1  0
 22 69  1  1
 22 70  1  0
 23 71  1  6
 23 72  1  0
 24 73  1  6
 24 74  1  0
 25 75  1  1
 25 76  1  0
 25 77  1  0
 27 78  1  0
 28 79  1  0
 29 80  1  6
 29 81  1  0
 31 82  1  0
 32 83  1  0
 35 84  1  1
 35 85  1  0
 36 86  1  6
 36 87  1  0
 36 88  1  0
M  END
