1M2Z_DEX_A_301
     RDKit          3D

 28 31  0  0  0  0  0  0  0  0999 V2000
   24.0952   14.5769    0.7071 C   0  0  0  0  0  0  0  0  0  0  0  0
   24.2499   14.5587    2.0259 C   0  0  0  0  0  0  0  0  0  0  0  0
   23.1604   15.1460    2.8710 C   0  0  0  0  0  0  0  0  0  0  0  0
   22.0159   15.8277    2.1820 C   0  0  0  0  0  0  0  0  0  0  0  0
   21.9314   15.8118    0.8542 C   0  0  0  0  0  0  0  0  0  0  0  0
   20.7645   16.5262    0.2400 C   0  0  0  0  0  0  0  0  0  0  0  0
   21.2681   17.5224   -0.8004 C   0  0  0  0  0  0  0  0  0  0  0  0
   22.2938   16.9245   -1.7582 C   0  0  2  0  0  0  0  0  0  0  0  0
   23.4263   16.1597   -1.0729 C   0  0  1  0  0  0  0  0  0  0  0  0
   22.9252   15.1378   -0.0510 C   0  0  1  0  0  0  0  0  0  0  0  0
   24.5494   15.6919   -1.9975 C   0  0  2  0  0  0  0  0  0  0  0  0
   24.9471   16.6634   -3.1043 C   0  0  0  0  0  0  0  0  0  0  0  0
   23.7360   17.2477   -3.8304 C   0  0  1  0  0  0  0  0  0  0  0  0
   22.8250   17.9095   -2.7961 C   0  0  1  0  0  0  0  0  0  0  0  0
   21.8813   18.8107   -3.5865 C   0  0  0  0  0  0  0  0  0  0  0  0
   22.7238   19.2590   -4.7772 C   0  0  2  0  0  0  0  0  0  0  0  0
   24.0316   18.4757   -4.6911 C   0  0  2  0  0  0  0  0  0  0  0  0
   23.0513   16.1662   -4.6637 C   0  0  0  0  0  0  0  0  0  0  0  0
   22.2319   13.9291   -0.6748 C   0  0  0  0  0  0  0  0  0  0  0  0
   24.6222   18.1499   -6.0541 C   0  0  0  0  0  0  0  0  0  0  0  0
   26.0070   18.6097   -6.4779 C   0  0  0  0  0  0  0  0  0  0  0  0
   22.8495   20.7783   -4.8158 C   0  0  0  0  0  0  0  0  0  0  0  0
   24.0662   17.1103   -0.3337 F   0  0  0  0  0  0  0  0  0  0  0  0
   23.2074   15.0670    4.0962 O   0  0  0  0  0  0  0  0  0  0  0  0
   24.1699   14.4855   -2.6440 O   0  0  0  0  0  0  0  0  0  0  0  0
   24.9698   19.3119   -4.0289 O   0  0  0  0  0  0  0  0  0  0  0  0
   23.9858   17.4783   -6.8635 O   0  0  0  0  0  0  0  0  0  0  0  0
   26.3060   18.1155   -7.7746 O   0  0  0  0  0  0  0  0  0  0  0  0
  1  2  2  0
  2  3  1  0
  3  4  1  0
  4  5  2  0
  5  6  1  0
  6  7  1  0
  8  7  1  1
  8  9  1  0
  1 10  1  0
  5 10  1  0
  9 10  1  0
  9 11  1  0
 11 12  1  0
 12 13  1  0
  8 14  1  0
 13 14  1  0
 14 15  1  6
 15 16  1  0
 13 17  1  0
 16 17  1  0
 13 18  1  6
 10 19  1  6
 17 20  1  0
 20 21  1  0
 16 22  1  1
  9 23  1  1
  3 24  2  0
 11 25  1  6
 17 26  1  1
 20 27  2  0
 21 28  1  0
M  END
