7N4W_P4V_A_203
     RDKit          3D

 26 29  0  0  0  0  0  0  0  0999 V2000
   -3.5730    4.8443   -0.6770 C   0  0  0  0  0  0  0  0  0  0  0  0
   -2.8312    6.9455    0.1949 C   0  0  0  0  0  0  0  0  0  0  0  0
   -2.3361    3.7626   -2.3966 O   0  0  0  0  0  0  0  0  0  0  0  0
   -7.0093    5.2727    5.6472 C   0  0  0  0  0  0  0  0  0  0  0  0
   -7.7346    4.2111    5.0534 O   0  0  0  0  0  0  0  0  0  0  0  0
   -7.8415    4.0947    3.6657 C   0  0  0  0  0  0  0  0  0  0  0  0
   -6.9550    4.7187    2.8098 C   0  0  0  0  0  0  0  0  0  0  0  0
   -8.8721    3.3276    3.1608 C   0  0  0  0  0  0  0  0  0  0  0  0
   -9.7481    2.7114    4.0302 O   0  0  0  0  0  0  0  0  0  0  0  0
  -10.9210    2.0954    3.5887 C   0  0  0  0  0  0  0  0  0  0  0  0
   -8.9823    3.2090    1.7840 C   0  0  0  0  0  0  0  0  0  0  0  0
   -8.0733    3.8498    0.9363 C   0  0  0  0  0  0  0  0  0  0  0  0
   -8.2339    3.6919   -0.5439 C   0  0  0  0  0  0  0  0  0  0  0  0
   -6.9398    3.8465   -1.2747 C   0  0  0  0  0  0  0  0  0  0  0  0
   -5.8638    4.3907   -0.5752 N   0  0  0  0  0  0  0  0  0  0  0  0
   -4.6040    3.7463   -0.6276 C   0  0  0  0  0  0  0  0  0  0  0  0
   -6.1193    5.2656    0.5091 C   0  0  1  0  0  0  0  0  0  0  0  0
   -7.0429    4.6168    1.4453 C   0  0  0  0  0  0  0  0  0  0  0  0
   -4.9285    5.8943    1.1133 C   0  0  0  0  0  0  0  0  0  0  0  0
   -3.7420    5.9066    0.1908 C   0  0  0  0  0  0  0  0  0  0  0  0
   -1.7446    6.9359   -0.6648 C   0  0  0  0  0  0  0  0  0  0  0  0
   -1.5899    5.8550   -1.5343 C   0  0  0  0  0  0  0  0  0  0  0  0
   -0.5089    5.7968   -2.4232 O   0  0  0  0  0  0  0  0  0  0  0  0
    0.2689    6.9419   -2.6742 C   0  0  0  0  0  0  0  0  0  0  0  0
   -2.5099    4.8267   -1.5237 C   0  0  0  0  0  0  0  0  0  0  0  0
   -3.3717    3.4584   -3.3337 C   0  0  0  0  0  0  0  0  0  0  0  0
  4  5  1  0
  5  6  1  0
  6  7  1  0
  6  8  2  0
  8  9  1  0
  9 10  1  0
  8 11  1  0
 11 12  2  0
 12 13  1  0
 13 14  1  0
 14 15  1  0
 15 16  1  0
  1 16  1  0
 15 17  1  0
  7 18  2  0
 12 18  1  0
 17 18  1  0
 17 19  1  1
 19 20  1  0
  2 20  2  0
  1 20  1  0
  2 21  1  0
 21 22  2  0
 22 23  1  0
 23 24  1  0
  1 25  2  0
 22 25  1  0
  3 25  1  0
  3 26  1  0
M  END
$$$$
