
     RDKit          3D

 24 24  0  0  0  0  0  0  0  0999 V2000
    3.3094  -11.9938  -11.3445 C   0  0  1  0  0  0  0  0  0  0  0  0
    2.3211  -13.1287  -11.6499 C   0  0  1  0  0  0  0  0  0  0  0  0
    2.1128  -13.6139  -14.0051 C   0  0  0  0  0  0  0  0  0  0  0  0
    1.6777  -12.8963  -15.2742 C   0  0  0  0  0  0  0  0  0  0  0  0
    1.5003  -15.0125  -13.9262 C   0  0  0  0  0  0  0  0  0  0  0  0
    1.3340  -13.2673  -10.4660 C   0  0  1  0  0  0  0  0  0  0  0  0
   -1.0754  -12.8058  -10.8782 C   0  0  0  0  0  0  0  0  0  0  0  0
   -1.9539  -12.9407   -9.6647 C   0  0  0  0  0  0  0  0  0  0  0  0
    2.0839  -13.0571   -9.1161 C   0  0  1  0  0  0  0  0  0  0  0  0
    4.1573  -12.3473  -10.1007 C   0  0  2  0  0  0  0  0  0  0  0  0
    5.5270  -12.9687  -10.4317 C   0  0  0  0  0  0  0  0  0  0  0  0
    0.1928  -12.3426  -10.6144 N   0  0  0  0  0  0  0  0  0  0  0  0
    4.1068  -11.6823  -12.4861 O   0  0  0  0  0  0  0  0  0  0  0  0
    1.6555  -12.8254  -12.8938 O   0  0  0  0  0  0  0  0  0  0  0  0
    2.0769  -16.0639  -14.1694 O   0  0  0  0  0  0  0  0  0  0  0  0
    0.1899  -15.0111  -13.6159 O   0  0  0  0  0  0  0  0  0  0  0  0
   -1.4594  -13.0856  -12.0103 O   0  0  0  0  0  0  0  0  0  0  0  0
    1.6066  -13.9756   -8.1454 O   0  0  0  0  0  0  0  0  0  0  0  0
    3.4789  -13.2890   -9.2416 O   0  0  0  0  0  0  0  0  0  0  0  0
    5.3278  -14.2247  -11.0648 O   0  0  0  0  0  0  0  0  0  0  0  0
    5.4948  -15.7047   -8.9746 O   0  0  0  0  0  0  0  0  0  0  0  0
    7.5277  -15.0711  -10.2313 O   0  0  0  0  0  0  0  0  0  0  0  0
    5.9053  -16.7611  -11.3167 O   0  0  0  0  0  0  0  0  0  0  0  0
    6.0192  -15.5410  -10.4702 P   0  0  0  0  0  5  0  0  0  0  0  0
  1  2  1  0
  3  4  1  0
  3  5  1  0
  2  6  1  0
  7  8  1  0
  6  9  1  0
  1 10  1  0
 10 11  1  6
  6 12  1  6
  7 12  1  0
  1 13  1  6
  3 14  1  0
  2 14  1  6
  5 15  2  0
  5 16  1  0
  7 17  2  0
  9 18  1  1
 10 19  1  0
  9 19  1  0
 11 20  1  0
 23 24  2  0
 21 24  1  0
 20 24  1  0
 22 24  1  0
M  END
