7RC3_SAH_A_405
     RDKit          3D

 26 28  0  0  0  0  0  0  0  0999 V2000
  -45.8897   34.3000   -7.9109 N   0  0  0  0  0  0  0  0  0  0  0  0
  -47.1730   34.5697   -8.4908 C   0  0  1  0  0  0  0  0  0  0  0  0
  -48.0190   33.3077   -8.6142 C   0  0  0  0  0  0  0  0  0  0  0  0
  -47.4166   32.4518   -9.7074 C   0  0  0  0  0  0  0  0  0  0  0  0
  -47.8250   30.6928   -9.4636 S   0  0  0  0  0  0  0  0  0  0  0  0
  -47.8782   35.5750   -7.6453 C   0  0  0  0  0  0  0  0  0  0  0  0
  -47.2522   36.1063   -6.6720 O   0  0  0  0  0  0  0  0  0  0  0  0
  -49.1822   35.9683   -7.8566 O   0  0  0  0  0  0  0  0  0  0  0  0
  -49.3137   30.3501  -10.4649 C   0  0  0  0  0  0  0  0  0  0  0  0
  -50.5587   30.9410   -9.7945 C   0  0  1  0  0  0  0  0  0  0  0  0
  -51.6518   30.3063  -10.3358 O   0  0  0  0  0  0  0  0  0  0  0  0
  -50.5083   30.5747   -8.3256 C   0  0  1  0  0  0  0  0  0  0  0  0
  -51.2991   31.5057   -7.6539 O   0  0  0  0  0  0  0  0  0  0  0  0
  -51.2632   29.2456   -8.3967 C   0  0  1  0  0  0  0  0  0  0  0  0
  -51.7410   28.8631   -7.1567 O   0  0  0  0  0  0  0  0  0  0  0  0
  -52.3563   29.6892   -9.3482 C   0  0  2  0  0  0  0  0  0  0  0  0
  -53.1173   28.5435   -9.7861 N   0  0  0  0  0  0  0  0  0  0  0  0
  -52.9038   27.8366  -10.8928 C   0  0  0  0  0  0  0  0  0  0  0  0
  -53.8385   26.8559  -10.9206 N   0  0  0  0  0  0  0  0  0  0  0  0
  -54.6086   26.9759   -9.8339 C   0  0  0  0  0  0  0  0  0  0  0  0
  -55.6853   26.1963   -9.4473 C   0  0  0  0  0  0  0  0  0  0  0  0
  -56.1189   25.0906  -10.2385 N   0  0  0  0  0  0  0  0  0  0  0  0
  -56.2873   26.5462   -8.2918 N   0  0  0  0  0  0  0  0  0  0  0  0
  -55.8605   27.5899   -7.5665 C   0  0  0  0  0  0  0  0  0  0  0  0
  -54.7989   28.3575   -7.9488 N   0  0  0  0  0  0  0  0  0  0  0  0
  -54.1621   28.0516   -9.0945 C   0  0  0  0  0  0  0  0  0  0  0  0
  2  1  1  1
  2  3  1  0
  3  4  1  0
  4  5  1  0
  2  6  1  0
  6  7  2  0
  6  8  1  0
  5  9  1  0
 10  9  1  6
 10 11  1  0
 10 12  1  0
 12 13  1  1
 12 14  1  0
 14 15  1  1
 11 16  1  0
 14 16  1  0
 16 17  1  6
 17 18  1  0
 18 19  2  0
 19 20  1  0
 20 21  2  0
 21 22  1  0
 21 23  1  0
 23 24  2  0
 24 25  1  0
 17 26  1  0
 20 26  1  0
 25 26  2  0
M  END
$$$$
