7WPW_F15_A_200
     RDKit          3D

 47 46  0  0  0  0  0  0  0  0999 V2000
    7.5887  -25.3400   -2.0324 C   0  0  0  0  0  0  0  0  0  0  0  0
    7.4055  -26.3820   -1.3199 O   0  0  0  0  0  0  0  0  0  0  0  0
    8.5201  -25.2340   -2.8634 O   0  0  0  0  0  0  0  0  0  0  0  0
    6.6327  -24.1955   -1.8329 C   0  0  0  0  0  0  0  0  0  0  0  0
    6.1863  -23.4699   -3.0582 C   0  0  0  0  0  0  0  0  0  0  0  0
    8.1447  -24.6965   -4.0617 C   0  0  0  0  0  0  0  0  0  0  0  0
    8.5429  -24.7933   -2.5952 C   0  0  0  0  0  0  0  0  0  0  0  0
    6.9646  -23.7990   -4.3200 C   0  0  0  0  0  0  0  0  0  0  0  0
    7.5124  -24.3299   -1.6067 C   0  0  0  0  0  0  0  0  0  0  0  0
    6.1074  -24.4874   -2.1098 C   0  0  0  0  0  0  0  0  0  0  0  0
    6.1357  -24.6837   -3.6097 C   0  0  0  0  0  0  0  0  0  0  0  0
    7.4789  -24.8342   -4.2192 C   0  0  0  0  0  0  0  0  0  0  0  0
    8.4911  -25.4480   -3.3599 C   0  0  0  0  0  0  0  0  0  0  0  0
    8.0746  -25.7812   -1.9723 C   0  0  0  0  0  0  0  0  0  0  0  0
    6.8451  -24.9883   -1.7264 C   0  0  0  0  0  0  0  0  0  0  0  0
    6.2093  -24.3049   -2.9198 C   0  0  0  0  0  0  0  0  0  0  0  0
    7.0029  -24.6373   -4.1637 C   0  0  0  0  0  0  0  0  0  0  0  0
    6.6939  -26.4143   -0.7111 H   0  0  0  0  0  0  0  0  0  0  0  0
    5.7600  -24.5832   -1.3505 H   0  0  0  0  0  0  0  0  0  0  0  0
    7.1769  -23.4724   -1.2621 H   0  0  0  0  0  0  0  0  0  0  0  0
    5.1582  -23.7110   -3.2304 H   0  0  0  0  0  0  0  0  0  0  0  0
    6.3535  -22.4305   -2.8670 H   0  0  0  0  0  0  0  0  0  0  0  0
    8.9808  -24.3192   -4.6127 H   0  0  0  0  0  0  0  0  0  0  0  0
    7.8573  -25.6803   -4.3691 H   0  0  0  0  0  0  0  0  0  0  0  0
    8.7648  -25.8181   -2.3820 H   0  0  0  0  0  0  0  0  0  0  0  0
    9.3771  -24.1337   -2.4764 H   0  0  0  0  0  0  0  0  0  0  0  0
    6.3077  -24.2882   -5.0088 H   0  0  0  0  0  0  0  0  0  0  0  0
    7.3410  -22.8785   -4.7148 H   0  0  0  0  0  0  0  0  0  0  0  0
    7.6194  -24.9016   -0.7087 H   0  0  0  0  0  0  0  0  0  0  0  0
    7.6774  -23.2864   -1.4369 H   0  0  0  0  0  0  0  0  0  0  0  0
    5.6544  -25.3385   -1.6458 H   0  0  0  0  0  0  0  0  0  0  0  0
    5.5399  -23.6119   -1.8721 H   0  0  0  0  0  0  0  0  0  0  0  0
    5.5729  -25.5654   -3.8353 H   0  0  0  0  0  0  0  0  0  0  0  0
    5.7283  -23.7863   -4.0263 H   0  0  0  0  0  0  0  0  0  0  0  0
    7.3779  -25.4400   -5.0955 H   0  0  0  0  0  0  0  0  0  0  0  0
    7.8246  -23.8419   -4.4208 H   0  0  0  0  0  0  0  0  0  0  0  0
    8.8089  -26.3552   -3.8299 H   0  0  0  0  0  0  0  0  0  0  0  0
    9.2567  -24.7082   -3.2540 H   0  0  0  0  0  0  0  0  0  0  0  0
    7.8686  -26.8274   -1.8848 H   0  0  0  0  0  0  0  0  0  0  0  0
    8.8421  -25.5541   -1.2622 H   0  0  0  0  0  0  0  0  0  0  0  0
    6.1150  -25.6489   -1.3076 H   0  0  0  0  0  0  0  0  0  0  0  0
    7.1563  -24.1897   -1.0858 H   0  0  0  0  0  0  0  0  0  0  0  0
    5.2027  -24.6487   -3.0349 H   0  0  0  0  0  0  0  0  0  0  0  0
    6.2055  -23.2457   -2.7681 H   0  0  0  0  0  0  0  0  0  0  0  0
    7.0049  -25.6968   -4.3129 H   0  0  0  0  0  0  0  0  0  0  0  0
    6.5565  -24.1588   -5.0102 H   0  0  0  0  0  0  0  0  0  0  0  0
    8.0090  -24.2916   -4.0481 H   0  0  0  0  0  0  0  0  0  0  0  0
  1  2  1  0
  1  3  2  0
  1  4  1  0
  4  5  1  0
  6  7  1  0
  5  8  1  0
  6  8  1  0
  7  9  1  0
  9 10  1  0
 10 11  1  0
 11 12  1  0
 12 13  1  0
 13 14  1  0
 14 15  1  0
 15 16  1  0
 16 17  1  0
  2 18  1  0
  4 19  1  0
  4 20  1  0
  5 21  1  0
  5 22  1  0
  6 23  1  0
  6 24  1  0
  7 25  1  0
  7 26  1  0
  8 27  1  0
  8 28  1  0
  9 29  1  0
  9 30  1  0
 10 31  1  0
 10 32  1  0
 11 33  1  0
 11 34  1  0
 12 35  1  0
 12 36  1  0
 13 37  1  0
 13 38  1  0
 14 39  1  0
 14 40  1  0
 15 41  1  0
 15 42  1  0
 16 43  1  0
 16 44  1  0
 17 45  1  0
 17 46  1  0
 17 47  1  0
M  END
