
     RDKit          3D

 19 21  0  0  0  0  0  0  0  0999 V2000
   16.6424   23.1946    8.9409 O   0  0  0  0  0  0  0  0  0  0  0  0
   16.9231   23.6961   10.2448 C   0  0  0  0  0  0  0  0  0  0  0  0
   15.8523   24.7143   10.6641 C   0  0  1  0  0  0  0  0  0  0  0  0
   15.4952   24.4828   12.0523 O   0  0  0  0  0  0  0  0  0  0  0  0
   16.3719   26.1477   10.5896 C   0  0  1  0  0  0  0  0  0  0  0  0
   15.2817   27.0581   10.3940 O   0  0  0  0  0  0  0  0  0  0  0  0
   16.9632   26.3559   11.9713 C   0  0  1  0  0  0  0  0  0  0  0  0
   17.0442   27.7472   12.2826 O   0  0  0  0  0  0  0  0  0  0  0  0
   15.9636   25.5887   12.8430 C   0  0  2  0  0  0  0  0  0  0  0  0
   16.5644   25.1276   14.0902 N   0  0  0  0  0  0  0  0  0  0  0  0
   16.8489   25.9836   15.1272 C   0  0  0  0  0  0  0  0  0  0  0  0
   17.4678   25.3783   16.1118 N   0  0  0  0  0  0  0  0  0  0  0  0
   17.5493   24.0542   15.7251 C   0  0  0  0  0  0  0  0  0  0  0  0
   18.1070   22.9488   16.4109 C   0  0  0  0  0  0  0  0  0  0  0  0
   18.6865   23.0568   17.6692 N   0  0  0  0  0  0  0  0  0  0  0  0
   18.1095   21.7323   15.8160 N   0  0  0  0  0  0  0  0  0  0  0  0
   17.5359   21.5920   14.5987 C   0  0  0  0  0  0  0  0  0  0  0  0
   16.9570   22.6133   13.8581 C   0  0  0  0  0  0  0  0  0  0  0  0
   16.9909   23.8720   14.4576 C   0  0  0  0  0  0  0  0  0  0  0  0
  1  2  1  0
  3  2  1  1
  3  4  1  0
  3  5  1  0
  5  6  1  1
  5  7  1  0
  7  8  1  1
  4  9  1  0
  7  9  1  0
  9 10  1  1
 10 11  4  0
 11 12  4  0
 12 13  4  0
 13 14  4  0
 14 15  1  0
 14 16  4  0
 16 17  4  0
 17 18  4  0
 10 19  4  0
 13 19  4  0
 18 19  4  0
M  END
