7L6D_BMF_A_501
     RDKit          3D

 28 30  0  0  0  0  0  0  0  0999 V2000
   10.0708   10.4090   23.2286 C   0  0  0  0  0  0  0  0  0  0  0  0
    8.5625    9.9740   21.4767 N   0  0  0  0  0  0  0  0  0  0  0  0
   10.3190   10.9812   19.6067 C   0  0  0  0  0  0  0  0  0  0  0  0
   12.4265   12.1128   18.6745 C   0  0  0  0  0  0  0  0  0  0  0  0
   12.0863   15.3894   17.1140 C   0  0  0  0  0  0  0  0  0  0  0  0
   10.6642   10.9335   20.9572 C   0  0  0  0  0  0  0  0  0  0  0  0
    5.8952    9.0394   20.2093 C   0  0  0  0  0  0  0  0  0  0  0  0
   11.6112   10.4409   25.0782 C   0  0  0  0  0  0  0  0  0  0  0  0
   10.8014   10.8164   27.4432 C   0  0  0  0  0  0  0  0  0  0  0  0
   10.5577   10.6678   25.9437 C   0  0  0  0  0  0  0  0  0  0  0  0
    9.2694   10.7886   25.4609 C   0  0  0  0  0  0  0  0  0  0  0  0
    8.2184   11.0290   26.4334 N   0  0  0  0  0  0  0  0  0  0  0  0
    6.8112   11.9209   26.1012 S   0  0  2  0  0  0  0  0  0  0  0  0
    6.0869   11.2391   24.5891 C   0  0  0  0  0  0  0  0  0  0  0  0
    7.1172   13.3266   25.8991 O   0  0  0  0  0  0  0  0  0  0  0  0
    5.8730   11.8413   27.2189 O   0  0  0  0  0  0  0  0  0  0  0  0
    9.0142   10.6587   24.1008 C   0  0  0  0  0  0  0  0  0  0  0  0
    9.7534   10.3780   21.8789 C   0  0  0  0  0  0  0  0  0  0  0  0
    8.2256   10.0363   20.1230 N   0  0  0  0  0  0  0  0  0  0  0  0
    9.0487   10.5078   19.2280 C   0  0  0  0  0  0  0  0  0  0  0  0
   11.1465   11.4732   18.5232 N   0  0  0  0  0  0  0  0  0  0  0  0
   12.4745   13.4843   18.4618 O   0  0  0  0  0  0  0  0  0  0  0  0
   12.0862   13.8666   17.1627 C   0  0  0  0  0  0  0  0  0  0  0  0
   13.3971   11.5102   18.9722 O   0  0  0  0  0  0  0  0  0  0  0  0
    8.4630   10.4595   18.0042 N   0  0  0  0  0  0  0  0  0  0  0  0
    7.2225    9.9028   18.1992 N   0  0  0  0  0  0  0  0  0  0  0  0
    7.0914    9.6574   19.4946 C   0  0  0  0  0  0  0  0  0  0  0  0
   11.3661   10.3211   23.7159 C   0  0  0  0  0  0  0  0  0  0  0  0
  3  6  2  0
  9 10  1  0
  8 10  2  0
 10 11  1  0
 11 12  1  0
 12 13  1  0
 13 14  1  6
 13 15  2  0
 13 16  2  0
 11 17  2  0
  1 17  1  0
  1 18  1  0
  6 18  1  0
  2 18  2  0
  2 19  1  0
  3 20  1  0
 19 20  1  0
  4 21  1  0
  3 21  1  0
  4 22  1  0
  5 23  1  0
 22 23  1  0
  4 24  2  0
 20 25  2  0
 25 26  1  0
 19 27  1  0
  7 27  1  0
 26 27  2  0
  8 28  1  0
  1 28  2  0
M  END
