7DUA_HJ0_B_1101
     RDKit          3D

 40 43  0  0  0  0  0  0  0  0999 V2000
   25.2448   12.8332  -24.8126 C   0  0  0  0  0  0  0  0  0  0  0  0
   27.2216   12.1360  -26.0117 C   0  0  0  0  0  0  0  0  0  0  0  0
   27.5671   11.9958  -27.3312 C   0  0  0  0  0  0  0  0  0  0  0  0
   28.8612   12.4834  -27.4591 C   0  0  0  0  0  0  0  0  0  0  0  0
   29.6871   12.5192  -28.7158 C   0  0  0  0  0  0  0  0  0  0  0  0
   22.8968   13.3859  -25.5807 C   0  0  0  0  0  0  0  0  0  0  0  0
   24.2101   16.7043  -28.3107 C   0  0  0  0  0  0  0  0  0  0  0  0
   25.6422   15.3561  -27.0558 C   0  0  0  0  0  0  0  0  0  0  0  0
   24.5129   14.6613  -26.5551 C   0  0  0  0  0  0  0  0  0  0  0  0
   20.3925   15.8085  -26.8759 C   0  0  0  0  0  0  0  0  0  0  0  0
   20.0062   13.4085  -25.8564 C   0  0  0  0  0  0  0  0  0  0  0  0
   25.2500   13.0789  -23.6138 O   0  0  0  0  0  0  0  0  0  0  0  0
   26.0375   11.8875  -25.3531 N   0  0  0  0  0  0  0  0  0  0  0  0
   29.2398   12.9220  -26.2900 N   0  0  0  0  0  4  0  0  0  0  0  0
   28.2101   12.7425  -25.3786 N   0  0  0  0  0  0  0  0  0  0  0  0
   24.2595   13.5405  -25.6352 C   0  0  0  0  0  0  0  0  0  0  0  0
   22.3102   14.2623  -26.4040 N   0  0  0  0  0  4  0  0  0  0  0  0
   23.2325   15.0592  -27.0081 C   0  0  0  0  0  0  0  0  0  0  0  0
   23.1294   16.0696  -27.8838 N   0  0  0  0  0  0  0  0  0  0  0  0
   25.4395   16.3618  -27.9297 N   0  0  0  0  0  0  0  0  0  0  0  0
   26.9377   15.0238  -26.7105 N   0  0  0  0  0  0  0  0  0  0  0  0
   20.8795   14.3742  -26.6527 C   0  0  2  0  0  0  0  0  0  0  0  0
   20.1434   13.2413  -27.3678 C   0  0  0  0  0  0  0  0  0  0  0  0
   26.9794   11.6039  -28.0835 H   0  0  0  0  0  0  0  0  0  0  0  0
   29.1276   12.0938  -29.5225 H   0  0  0  0  0  0  0  0  0  0  0  0
   30.5850   11.9563  -28.5687 H   0  0  0  0  0  0  0  0  0  0  0  0
   29.9361   13.5332  -28.9501 H   0  0  0  0  0  0  0  0  0  0  0  0
   22.3999   12.6978  -24.9936 H   0  0  0  0  0  0  0  0  0  0  0  0
   24.0954   17.4949  -28.9640 H   0  0  0  0  0  0  0  0  0  0  0  0
   21.0026   16.4839  -26.3134 H   0  0  0  0  0  0  0  0  0  0  0  0
   19.3756   15.8940  -26.5540 H   0  0  0  0  0  0  0  0  0  0  0  0
   20.4589   16.0499  -27.9162 H   0  0  0  0  0  0  0  0  0  0  0  0
   19.0811   13.7453  -25.4374 H   0  0  0  0  0  0  0  0  0  0  0  0
   20.1596   12.7740  -25.0085 H   0  0  0  0  0  0  0  0  0  0  0  0
   25.7492   10.9496  -25.2716 H   0  0  0  0  0  0  0  0  0  0  0  0
   30.1180   13.3180  -26.0870 H   0  0  0  0  0  0  0  0  0  0  0  0
   27.1051   14.2920  -26.0736 H   0  0  0  0  0  0  0  0  0  0  0  0
   27.6937   15.5189  -27.1012 H   0  0  0  0  0  0  0  0  0  0  0  0
   19.3148   13.4616  -28.0080 H   0  0  0  0  0  0  0  0  0  0  0  0
   20.4328   12.4421  -28.0178 H   0  0  0  0  0  0  0  0  0  0  0  0
  2  3  4  0
  3  4  4  0
  4  5  1  0
  8  9  4  0
  1 12  2  0
  2 13  1  0
  1 13  1  0
  4 14  4  0
 14 15  4  0
  2 15  4  0
  6 16  4  0
  1 16  1  0
  9 16  4  0
  6 17  4  0
 17 18  4  0
  9 18  4  0
 18 19  4  0
  7 19  4  0
  8 20  4  0
  7 20  4  0
  8 21  1  0
 11 22  1  0
 17 22  1  0
 22 10  1  6
 11 23  1  0
 22 23  1  0
  3 24  1  0
  5 25  1  0
  5 26  1  0
  5 27  1  0
  6 28  1  0
  7 29  1  0
 10 30  1  0
 10 31  1  0
 10 32  1  0
 11 33  1  0
 11 34  1  0
 13 35  1  0
 14 36  1  0
 21 37  1  0
 21 38  1  0
 23 39  1  0
 23 40  1  0
M  CHG  2  14   1  17   1
M  END
