7JMV_4NC_A_301
     RDKit          3D

 11 11  0  0  0  0  0  0  0  0999 V2000
   33.0088  -28.5702   -7.5170 C   0  0  0  0  0  0  0  0  0  0  0  0
   32.1760  -27.7113   -6.8370 C   0  0  0  0  0  0  0  0  0  0  0  0
   32.0309  -26.4198   -7.3030 C   0  0  0  0  0  0  0  0  0  0  0  0
   32.7280  -26.0422   -8.4333 C   0  0  0  0  0  0  0  0  0  0  0  0
   33.5644  -26.9227   -9.1071 C   0  0  0  0  0  0  0  0  0  0  0  0
   33.7149  -28.2176   -8.6468 C   0  0  0  0  0  0  0  0  0  0  0  0
   33.1615  -29.8840   -7.0499 O   0  0  0  0  0  0  0  0  0  0  0  0
   31.4674  -28.0671   -5.7024 O   0  0  0  0  0  0  0  0  0  0  0  0
   32.6044  -24.7183   -8.9448 N   0  0  0  0  0  0  0  0  0  0  0  0
   33.2056  -24.4037   -9.9942 O   0  0  0  0  0  0  0  0  0  0  0  0
   31.8125  -23.8268   -8.2461 O   0  0  0  0  0  0  0  0  0  0  0  0
  1  2  2  0
  2  3  1  0
  3  4  2  0
  4  5  1  0
  1  6  1  0
  5  6  2  0
  1  7  1  0
  2  8  1  0
  4  9  1  0
  9 10  2  0
  9 11  1  0
M  CHG  2   9   1  11  -1
M  END
$$$$
