7C6P_SQH_A_501
     RDKit          3D

 21 23  0  0  0  0  0  0  0  0999 V2000
    5.5060  -15.8089  -11.0209 C   0  0  0  0  0  0  0  0  0  0  0  0
    2.6944  -16.6861   -8.2053 C   0  0  0  0  0  0  0  0  0  0  0  0
    3.4014  -15.5045   -8.1464 C   0  0  0  0  0  0  0  0  0  0  0  0
    3.2094  -14.5019   -7.1063 C   0  0  0  0  0  0  0  0  0  0  0  0
    2.1668  -14.6880   -6.2220 C   0  0  0  0  0  0  0  0  0  0  0  0
    1.9305  -13.7608   -5.2015 C   0  0  0  0  0  0  0  0  0  0  0  0
    2.7413  -12.6438   -5.0664 C   0  0  0  0  0  0  0  0  0  0  0  0
    3.7913  -12.4531   -5.9541 C   0  0  0  0  0  0  0  0  0  0  0  0
    4.0089  -13.3891   -6.9634 C   0  0  0  0  0  0  0  0  0  0  0  0
    4.5506  -16.1080  -10.0650 C   0  0  0  0  0  0  0  0  0  0  0  0
    3.8727  -17.3101  -10.1766 C   0  0  0  0  0  0  0  0  0  0  0  0
    4.1168  -18.2047  -11.1957 C   0  0  0  0  0  0  0  0  0  0  0  0
    5.0772  -17.9040  -12.1565 C   0  0  0  0  0  0  0  0  0  0  0  0
    5.7517  -16.7099  -12.0471 C   0  0  0  0  0  0  0  0  0  0  0  0
    2.9229  -17.5963   -9.2173 C   0  0  0  0  0  0  0  0  0  0  0  0
    4.2985  -15.2569   -9.0705 O   0  0  0  0  0  0  0  0  0  0  0  0
    0.8871  -13.9464   -4.3161 O   0  0  0  0  0  0  0  0  0  0  0  0
    2.4981  -11.7374   -4.0565 O   0  0  0  0  0  0  0  0  0  0  0  0
    2.2638  -18.6653   -9.2462 O   0  0  0  0  0  0  0  0  0  0  0  0
    6.7143  -16.3733  -12.9822 O   0  0  0  0  0  0  0  0  0  0  0  0
    6.2106  -14.6171  -10.9509 O   0  0  0  0  0  0  0  0  0  0  0  0
  2  3  2  0
  3  4  1  0
  4  5  2  0
  5  6  1  0
  6  7  2  0
  7  8  1  0
  8  9  2  0
  4  9  1  0
  1 10  2  0
 10 11  1  0
 11 12  2  0
 12 13  1  0
  1 14  1  0
 13 14  2  0
  2 15  1  0
 11 15  1  0
  3 16  1  0
 10 16  1  0
  6 17  1  0
  7 18  1  0
 15 19  2  0
 14 20  1  0
  1 21  1  0
M  END
$$$$
