7ROU_66I_A_401
     RDKit          3D

 62 65  0  0  0  0  0  0  0  0999 V2000
   62.9460   13.2861   44.2069 C   0  0  1  0  0  0  0  0  0  0  0  0
   63.5619   11.5285   45.9152 C   0  0  0  0  0  0  0  0  0  0  0  0
   64.5966   12.0133   46.7329 C   0  0  0  0  0  0  0  0  0  0  0  0
   64.6270   11.6970   48.0944 C   0  0  0  0  0  0  0  0  0  0  0  0
   63.6178   10.9004   48.6527 C   0  0  0  0  0  0  0  0  0  0  0  0
   63.5180   11.8753   44.4474 C   0  0  2  0  0  0  0  0  0  0  0  0
   62.5855   10.4174   47.8421 C   0  0  0  0  0  0  0  0  0  0  0  0
   62.5567   10.7283   46.4805 C   0  0  0  0  0  0  0  0  0  0  0  0
   69.2389   15.7266   40.9234 C   0  0  1  0  0  0  0  0  0  0  0  0
   63.8049   14.3518   44.8475 C   0  0  0  0  0  0  0  0  0  0  0  0
   69.7324   13.5491   45.8033 C   0  0  2  0  0  0  0  0  0  0  0  0
   68.6150   13.5305   47.7577 C   0  0  2  0  0  0  0  0  0  0  0  0
   67.1549   13.5031   48.2170 C   0  0  1  0  0  0  0  0  0  0  0  0
   68.9052   11.1732   41.6379 C   0  0  0  0  0  0  0  0  0  0  0  0
   69.0904    9.8089   43.5907 C   0  0  0  0  0  0  0  0  0  0  0  0
   69.3619   12.1193   43.7775 C   0  0  0  0  0  0  0  0  0  0  0  0
   69.1588   12.2812   42.4430 C   0  0  0  0  0  0  0  0  0  0  0  0
   69.2261   13.6470   42.2476 C   0  0  0  0  0  0  0  0  0  0  0  0
   69.1588   14.9677   47.6196 C   0  0  2  0  0  0  0  0  0  0  0  0
   69.6356   15.0212   46.1789 C   0  0  1  0  0  0  0  0  0  0  0  0
   69.2572   16.1088   39.5924 F   0  0  0  0  0  0  0  0  0  0  0  0
   68.1973   16.3668   41.5655 F   0  0  0  0  0  0  0  0  0  0  0  0
   68.6928   11.2874   40.2301 N   0  0  0  0  0  0  0  0  0  0  0  0
   68.8753    9.9484   42.2423 N   0  0  0  0  0  0  0  0  0  0  0  0
   69.3389   10.9033   44.3731 N   0  0  0  0  0  0  0  0  0  0  0  0
   69.4705   14.2571   43.4352 N   0  0  0  0  0  0  0  0  0  0  0  0
   69.5653   13.3121   44.3678 N   0  0  0  0  0  0  0  0  0  0  0  0
   63.7830   14.5364   46.2674 N   0  0  0  0  0  0  0  0  0  0  0  0
   62.8158   13.5292   42.7682 N   0  0  0  0  0  0  0  0  0  0  0  0
   69.0600   14.3202   41.0349 O   0  0  0  0  0  0  0  0  0  0  0  0
   68.7308   12.8721   46.5154 O   0  0  0  0  0  0  0  0  0  0  0  0
   66.3631   14.2710   47.3431 O   0  0  0  0  0  0  0  0  0  0  0  0
   64.8589   12.1863   46.8215 O   0  0  0  0  0  0  0  0  0  0  0  0
   63.6326   10.5853   50.0102 O   0  0  0  0  0  0  0  0  0  0  0  0
   64.5396   15.0803   44.1257 O   0  0  0  0  0  0  0  0  0  0  0  0
   64.2349   13.6173   48.6998 O   0  0  0  0  0  0  0  0  0  0  0  0
   70.2224   15.1800   48.5174 O   0  0  0  0  0  0  0  0  0  0  0  0
   70.8796   15.6547   46.0328 O   0  0  0  0  0  0  0  0  0  0  0  0
   64.8055   13.6069   47.3097 S   0  0  2  0  0  6  0  0  0  0  0  0
   61.9263   13.3252   44.6524 H   0  0  0  0  0  0  0  0  0  0  0  0
   65.3786   12.6373   46.3181 H   0  0  0  0  0  0  0  0  0  0  0  0
   65.4317   12.0680   48.7165 H   0  0  0  0  0  0  0  0  0  0  0  0
   64.5321   11.7961   44.0001 H   0  0  0  0  0  0  0  0  0  0  0  0
   62.8796   11.1271   43.9290 H   0  0  0  0  0  0  0  0  0  0  0  0
   61.8047    9.8001   48.2671 H   0  0  0  0  0  0  0  0  0  0  0  0
   61.7541   10.3415   45.8644 H   0  0  0  0  0  0  0  0  0  0  0  0
   70.1941   16.0101   41.4239 H   0  0  0  0  0  0  0  0  0  0  0  0
   70.7238   13.1540   46.1209 H   0  0  0  0  0  0  0  0  0  0  0  0
   69.2176   12.9627   48.5071 H   0  0  0  0  0  0  0  0  0  0  0  0
   66.8173   12.4423   48.2250 H   0  0  0  0  0  0  0  0  0  0  0  0
   67.1036   13.9071   49.2521 H   0  0  0  0  0  0  0  0  0  0  0  0
   69.0663    8.8265   44.0393 H   0  0  0  0  0  0  0  0  0  0  0  0
   68.3692   15.7457   47.7731 H   0  0  0  0  0  0  0  0  0  0  0  0
   68.8635   15.5395   45.5649 H   0  0  0  0  0  0  0  0  0  0  0  0
   68.3531   10.4622   39.6873 H   0  0  0  0  0  0  0  0  0  0  0  0
   69.0419   12.1156   39.7031 H   0  0  0  0  0  0  0  0  0  0  0  0
   63.1639   15.2633   46.6908 H   0  0  0  0  0  0  0  0  0  0  0  0
   63.0264   12.6369   42.2609 H   0  0  0  0  0  0  0  0  0  0  0  0
   61.8266   13.7906   42.5435 H   0  0  0  0  0  0  0  0  0  0  0  0
   64.1712   11.1291   50.6731 H   0  0  0  0  0  0  0  0  0  0  0  0
   69.8700   15.7783   49.2289 H   0  0  0  0  0  0  0  0  0  0  0  0
   70.7926   16.5466   46.4573 H   0  0  0  0  0  0  0  0  0  0  0  0
  2  3  2  0
  3  4  1  0
  4  5  2  0
  2  6  1  0
  1  6  1  0
  5  7  1  0
  7  8  2  0
  2  8  1  0
  1 10  1  0
 12 13  1  0
 16 17  1  0
 14 17  2  0
 17 18  1  0
 12 19  1  0
 19 20  1  0
 11 20  1  0
  9 21  1  0
  9 22  1  0
 14 23  1  0
 15 24  2  0
 14 24  1  0
 16 25  2  0
 15 25  1  0
 18 26  2  0
 11 27  1  0
 26 27  1  0
 16 27  1  0
 10 28  1  0
  1 29  1  0
  9 30  1  0
 18 30  1  0
 12 31  1  0
 11 31  1  0
 13 32  1  0
  5 34  1  0
 10 35  2  0
 19 37  1  0
 20 38  1  0
 39 32  1  1
 33 39  2  0
 28 39  1  0
 36 39  2  0
  1 40  1  1
  3 41  1  0
  4 42  1  0
  6 43  1  6
  6 44  1  0
  7 45  1  0
  8 46  1  0
  9 47  1  1
 11 48  1  1
 12 49  1  1
 13 50  1  1
 13 51  1  0
 15 52  1  0
 19 53  1  6
 20 54  1  6
 23 55  1  0
 23 56  1  0
 28 57  1  0
 29 58  1  0
 29 59  1  0
 34 60  1  0
 37 61  1  0
 38 62  1  0
M  END
