
     RDKit          3D

 30 32  0  0  0  0  0  0  0  0999 V2000
   34.6586   -7.3443  -13.0177 C   0  0  0  0  0  0  0  0  0  0  0  0
   34.8261   -8.7005  -12.7278 C   0  0  0  0  0  0  0  0  0  0  0  0
   35.8309   -9.4613  -13.3579 C   0  0  0  0  0  0  0  0  0  0  0  0
   36.6733   -8.8297  -14.2783 C   0  0  0  0  0  0  0  0  0  0  0  0
   36.5256   -7.4803  -14.5713 C   0  0  0  0  0  0  0  0  0  0  0  0
   35.5241   -6.7305  -13.9503 C   0  0  0  0  0  0  0  0  0  0  0  0
   33.5551   -6.8774  -12.2477 C   0  0  0  0  0  0  0  0  0  0  0  0
   33.0513   -7.9512  -11.5263 C   0  0  0  0  0  0  0  0  0  0  0  0
   33.8679   -9.0455  -11.7731 N   0  0  0  0  0  0  0  0  0  0  0  0
   32.6726   -3.4657  -10.9539 C   0  0  0  0  0  0  0  0  0  0  0  0
   33.1878   -4.7614  -11.0250 C   0  0  0  0  0  0  0  0  0  0  0  0
   33.0098   -5.5289  -12.1852 C   0  0  0  0  0  0  0  0  0  0  0  0
   32.3180   -4.9819  -13.2744 C   0  0  0  0  0  0  0  0  0  0  0  0
   31.8013   -3.6868  -13.2005 C   0  0  0  0  0  0  0  0  0  0  0  0
   31.9829   -2.9419  -12.0415 C   0  0  0  0  0  0  0  0  0  0  0  0
   31.4875   -1.6994  -11.9708 F   0  0  0  0  0  0  0  0  0  0  0  0
   33.5061   -3.6585   -6.1595 O   0  0  0  0  0  0  0  0  0  0  0  0
   31.8266   -3.2817   -4.7469 O   0  0  0  0  0  0  0  0  0  0  0  0
   31.2458   -5.3791   -7.7813 O   0  0  0  0  0  0  0  0  0  0  0  0
   32.5490   -4.0910   -5.5404 C   0  0  0  0  0  0  0  0  0  0  0  0
   32.0875   -5.5182   -5.5274 C   0  0  0  0  0  0  0  0  0  0  0  0
   32.0808   -6.1586   -6.9135 C   0  0  1  0  0  0  0  0  0  0  0  0
   31.5747   -7.6095   -6.8977 C   0  0  0  0  0  0  0  0  0  0  0  0
   31.0793   -8.0585   -8.2801 C   0  0  1  0  0  0  0  0  0  0  0  0
   32.1600   -7.9176   -9.3063 C   0  0  0  0  0  0  0  0  0  0  0  0
   31.9568   -8.0227  -10.6285 C   0  0  0  0  0  0  0  0  0  0  0  0
   33.8057  -10.3821  -11.1659 C   0  0  0  0  0  0  0  0  0  0  0  0
   35.0341  -10.6867  -10.3097 C   0  0  0  0  0  0  0  0  0  0  0  0
   33.4857  -11.5206  -12.1390 C   0  0  0  0  0  0  0  0  0  0  0  0
   30.7233   -9.4355   -8.2543 O   0  0  0  0  0  0  0  0  0  0  0  0
  1  2  4  0
  2  3  4  0
  3  4  4  0
  4  5  4  0
  1  6  4  0
  5  6  4  0
  1  7  4  0
  7  8  4  0
  8  9  4  0
  2  9  4  0
 10 11  4  0
  7 12  1  0
 11 12  4  0
 12 13  4  0
 13 14  4  0
 14 15  4  0
 10 15  4  0
 15 16  1  0
 17 20  2  0
 18 20  1  0
 20 21  1  0
 21 22  1  0
 22 19  1  6
 22 23  1  0
 23 24  1  0
 24 25  1  0
 25 26  2  0
  8 26  1  0
  9 27  1  0
 27 28  1  0
 27 29  1  0
 24 30  1  1
M  END
