7BJJ_TVW_A_301
     RDKit          3D

 15 16  0  0  0  0  0  0  0  0999 V2000
   -0.3455    0.4012   -0.7196 C   0  0  0  0  0  0  0  0  0  0  0  0
   -0.5193    0.2266   -2.1261 N   0  0  0  0  0  0  0  0  0  0  0  0
   -1.1791    1.1583    1.3872 C   0  0  0  0  0  0  0  0  0  0  0  0
   -1.3263    0.9814    0.0345 N   0  0  0  0  0  0  0  0  0  0  0  0
    0.9376    0.1794    1.2757 C   0  0  0  0  0  0  0  0  0  0  0  0
   -0.0362    0.7547    2.0205 N   0  0  0  0  0  0  0  0  0  0  0  0
    0.8117   -0.0051   -0.0647 C   0  0  0  0  0  0  0  0  0  0  0  0
    2.7497   -0.7548    0.6470 N   0  0  0  0  0  0  0  0  0  0  0  0
    1.9834   -0.6071   -0.4600 C   0  0  0  0  0  0  0  0  0  0  0  0
    2.1207   -0.2771    1.7172 N   0  0  0  0  0  0  0  0  0  0  0  0
    0.2236   -0.2154   -2.7114 H   0  0  0  0  0  0  0  0  0  0  0  0
   -1.4007    0.5427   -2.5879 H   0  0  0  0  0  0  0  0  0  0  0  0
   -1.9732    1.6207    1.9570 H   0  0  0  0  0  0  0  0  0  0  0  0
    3.7020   -1.1814    0.6733 H   0  0  0  0  0  0  0  0  0  0  0  0
    2.2654   -0.9146   -1.4582 H   0  0  0  0  0  0  0  0  0  0  0  0
  1  2  1  0
  1  4  2  0
  3  4  1  0
  5  6  1  0
  3  6  2  0
  1  7  1  0
  5  7  1  0
  8  9  1  0
  7  9  2  0
  8 10  1  0
  5 10  2  0
  2 11  1  0
  2 12  1  0
  3 13  1  0
  8 14  1  0
  9 15  1  0
M  END
