1HVY_D16_D_417
     RDKit          3D

 54 56  0  0  0  0  0  0  0  0999 V2000
    0.9901   10.3130   17.6999 N   0  0  0  0  0  0  0  0  0  0  0  0
    0.8236   10.0866   19.0339 C   0  0  0  0  0  0  0  0  0  0  0  0
   -0.5132    9.6760   19.5707 C   0  0  1  0  0  0  0  0  0  0  0  0
    1.8700   10.2494   19.8860 N   0  0  0  0  0  0  0  0  0  0  0  0
    3.0956   10.6288   19.4411 C   0  0  0  0  0  0  0  0  0  0  0  0
    4.0360   10.7666   20.2687 O   0  0  0  0  0  0  0  0  0  0  0  0
    3.2984   10.8643   18.0707 C   0  0  0  0  0  0  0  0  0  0  0  0
    4.5427   11.2700   17.5542 C   0  0  0  0  0  0  0  0  0  0  0  0
    4.6954   11.5163   16.1798 C   0  0  0  0  0  0  0  0  0  0  0  0
    3.5966   11.3521   15.3229 C   0  0  0  0  0  0  0  0  0  0  0  0
    2.3609   10.9378   15.8266 C   0  0  0  0  0  0  0  0  0  0  0  0
    2.2000   10.6968   17.1999 C   0  0  0  0  0  0  0  0  0  0  0  0
    5.9977   12.0551   15.6458 C   0  0  2  0  0  0  0  0  0  0  0  0
    6.2159   13.4192   16.1456 N   0  0  0  0  0  0  0  0  0  0  0  0
    4.2878   14.5374   19.3602 C   0  0  0  0  0  0  0  0  0  0  0  0
    4.2223   14.5887   17.6754 S   0  0  0  0  0  0  0  0  0  0  0  0
    5.6887   13.8002   17.4283 C   0  0  0  0  0  0  0  0  0  0  0  0
    6.2505   13.4823   18.6603 C   0  0  0  0  0  0  0  0  0  0  0  0
    5.4673   13.9013   19.7411 C   0  0  0  0  0  0  0  0  0  0  0  0
    3.2421   15.0169   20.2818 C   0  0  0  0  0  0  0  0  0  0  0  0
    3.2621   14.6396   21.4853 O   0  0  0  0  0  0  0  0  0  0  0  0
    2.1939   15.8854   19.8198 N   0  0  0  0  0  0  0  0  0  0  0  0
    2.3399   17.3458   19.8272 C   0  0  1  0  0  0  0  0  0  0  0  0
    3.8150   17.7566   20.0183 C   0  0  1  0  0  0  0  0  0  0  0  0
    4.5493   16.8968   21.0613 C   0  0  2  0  0  0  0  0  0  0  0  0
    3.7553   16.7580   22.3257 C   0  0  0  0  0  0  0  0  0  0  0  0
    2.8374   17.5812   22.5901 O   0  0  0  0  0  0  0  0  0  0  0  0
    4.0572   15.7374   23.2264 O   0  0  0  0  0  0  0  0  0  0  0  0
    1.8234   17.9038   18.5311 C   0  0  0  0  0  0  0  0  0  0  0  0
    2.4670   18.8057   17.9322 O   0  0  0  0  0  0  0  0  0  0  0  0
    0.6383   17.4161   17.9829 O   0  0  0  0  0  0  0  0  0  0  0  0
    6.6729   14.4549   15.2165 C   0  0  2  0  0  0  0  0  0  0  0  0
    0.1743   10.1917   17.0564 H   0  0  0  0  0  0  0  0  0  0  0  0
   -1.2324   10.5159   19.4571 H   0  0  0  0  0  0  0  0  0  0  0  0
   -0.8878    8.7941   19.0089 H   0  0  0  0  0  0  0  0  0  0  0  0
   -0.4395    9.4072   20.6469 H   0  0  0  0  0  0  0  0  0  0  0  0
    5.3884   11.4117   18.2169 H   0  0  0  0  0  0  0  0  0  0  0  0
    3.6951   11.5567   14.2633 H   0  0  0  0  0  0  0  0  0  0  0  0
    1.5256   10.8184   15.1478 H   0  0  0  0  0  0  0  0  0  0  0  0
    5.9800   12.0486   14.5328 H   0  0  0  0  0  0  0  0  0  0  0  0
    6.8425   11.3959   15.9408 H   0  0  0  0  0  0  0  0  0  0  0  0
    7.1869   12.9558   18.7790 H   0  0  0  0  0  0  0  0  0  0  0  0
    5.7476   13.7243   20.7721 H   0  0  0  0  0  0  0  0  0  0  0  0
    1.2665   15.4724   19.5697 H   0  0  0  0  0  0  0  0  0  0  0  0
    1.7429   17.7703   20.6650 H   0  0  0  0  0  0  0  0  0  0  0  0
    4.3499   17.6698   19.0459 H   0  0  0  0  0  0  0  0  0  0  0  0
    3.8686   18.8255   20.3281 H   0  0  0  0  0  0  0  0  0  0  0  0
    5.5178   17.3856   21.3067 H   0  0  0  0  0  0  0  0  0  0  0  0
    4.7831   15.8912   20.6454 H   0  0  0  0  0  0  0  0  0  0  0  0
    4.9958   15.3601   23.2925 H   0  0  0  0  0  0  0  0  0  0  0  0
    0.2218   17.8541   17.1695 H   0  0  0  0  0  0  0  0  0  0  0  0
    7.7432   14.6909   15.3995 H   0  0  0  0  0  0  0  0  0  0  0  0
    6.0913   15.3921   15.3578 H   0  0  0  0  0  0  0  0  0  0  0  0
    6.5433   14.1032   14.1713 H   0  0  0  0  0  0  0  0  0  0  0  0
  1  2  1  0
  2  3  1  0
  2  4  2  0
  4  5  1  0
  5  6  2  0
  5  7  1  0
  7  8  1  0
  8  9  2  0
  9 10  1  0
 10 11  2  0
  1 12  1  0
  7 12  2  0
 11 12  1  0
  9 13  1  0
 13 14  1  0
 15 16  1  0
 14 17  1  0
 16 17  1  0
 17 18  2  0
 15 19  2  0
 18 19  1  0
 15 20  1  0
 20 21  2  0
 20 22  1  0
 22 23  1  0
 23 24  1  0
 24 25  1  0
 25 26  1  0
 26 27  2  0
 26 28  1  0
 23 29  1  0
 29 30  2  0
 29 31  1  0
 14 32  1  0
  1 33  1  0
  3 34  1  1
  3 35  1  0
  3 36  1  0
  8 37  1  0
 10 38  1  0
 11 39  1  0
 13 40  1  6
 13 41  1  0
 18 42  1  0
 19 43  1  0
 22 44  1  0
 23 45  1  1
 24 46  1  6
 24 47  1  0
 25 48  1  1
 25 49  1  0
 28 50  1  0
 31 51  1  0
 32 52  1  1
 32 53  1  0
 32 54  1  0
M  END
