7LOE_Y84_A_201
     RDKit          3D

 18 19  0  0  0  0  0  0  0  0999 V2000
   41.1909  -17.8077   13.5100 C   0  0  0  0  0  0  0  0  0  0  0  0
   41.2857  -18.0285   11.0737 C   0  0  0  0  0  0  0  0  0  0  0  0
   41.1346  -18.8171    9.9287 C   0  0  0  0  0  0  0  0  0  0  0  0
   40.7456  -20.1543   10.0390 C   0  0  0  0  0  0  0  0  0  0  0  0
   40.5039  -20.7155   11.2953 C   0  0  0  0  0  0  0  0  0  0  0  0
   40.6508  -19.9383   12.4544 C   0  0  0  0  0  0  0  0  0  0  0  0
   40.4102  -20.4936   13.7209 C   0  0  0  0  0  0  0  0  0  0  0  0
   40.5590  -19.7119   14.8696 C   0  0  0  0  0  0  0  0  0  0  0  0
   40.9478  -18.3743   14.7645 C   0  0  0  0  0  0  0  0  0  0  0  0
   41.0457  -18.5805   12.3452 C   0  0  0  0  0  0  0  0  0  0  0  0
   41.6648  -16.7319   10.9376 F   0  0  0  0  0  0  0  0  0  0  0  0
   41.4913  -16.7686   13.4539 H   0  0  0  0  0  0  0  0  0  0  0  0
   41.3198  -18.3907    8.9511 H   0  0  0  0  0  0  0  0  0  0  0  0
   40.6311  -20.7576    9.1477 H   0  0  0  0  0  0  0  0  0  0  0  0
   40.2030  -21.7544   11.3611 H   0  0  0  0  0  0  0  0  0  0  0  0
   40.1079  -21.5291   13.8218 H   0  0  0  0  0  0  0  0  0  0  0  0
   40.3724  -20.1442   15.8443 H   0  0  0  0  0  0  0  0  0  0  0  0
   41.0613  -17.7743   15.6583 H   0  0  0  0  0  0  0  0  0  0  0  0
  2  3  2  0
  3  4  1  0
  4  5  2  0
  5  6  1  0
  6  7  1  0
  7  8  2  0
  8  9  1  0
  1  9  2  0
  6 10  2  0
  2 10  1  0
  1 10  1  0
  2 11  1  0
  1 12  1  0
  3 13  1  0
  4 14  1  0
  5 15  1  0
  7 16  1  0
  8 17  1  0
  9 18  1  0
M  END
