7XFA_D9J_A_301
     RDKit          3D

 60 64  0  0  0  0  0  0  0  0999 V2000
  -14.7671   -6.0701   -0.2194 F   0  0  0  0  0  0  0  0  0  0  0  0
  -14.6305   -7.3323   -0.2101 C   0  0  2  0  0  0  0  0  0  0  0  0
  -15.6631   -7.8843   -0.9368 F   0  0  0  0  0  0  0  0  0  0  0  0
  -14.7829   -7.7251    1.0410 F   0  0  0  0  0  0  0  0  0  0  0  0
  -13.3501   -7.7470   -0.7265 C   0  0  0  0  0  0  0  0  0  0  0  0
  -13.2575   -8.8118   -1.6528 C   0  0  0  0  0  0  0  0  0  0  0  0
  -12.0322   -9.2264   -2.1703 C   0  0  0  0  0  0  0  0  0  0  0  0
  -10.8570   -8.6183   -1.7407 C   0  0  0  0  0  0  0  0  0  0  0  0
   -9.3350   -9.1949   -2.3341 Cl  0  0  0  0  0  0  0  0  0  0  0  0
  -10.9192   -7.5668   -0.8148 C   0  0  0  0  0  0  0  0  0  0  0  0
  -12.1505   -7.1098   -0.3120 C   0  0  0  0  0  0  0  0  0  0  0  0
  -12.1313   -6.0910    0.5767 N   0  0  0  0  0  4  0  0  0  0  0  0
  -11.1714   -5.9054    1.5191 N   0  0  0  0  0  0  0  0  0  0  0  0
  -11.5623   -4.8413    2.2136 C   0  0  0  0  0  0  0  0  0  0  0  0
  -10.7532   -4.2815    3.3759 C   0  0  0  0  0  0  0  0  0  0  0  0
  -12.7095   -4.3302    1.7443 N   0  0  0  0  0  0  0  0  0  0  0  0
  -13.0260   -5.1068    0.7165 C   0  0  0  0  0  0  0  0  0  0  0  0
  -14.2633   -4.9966   -0.1320 C   0  0  2  0  0  0  0  0  0  0  0  0
  -15.5066   -5.6221    0.4991 C   0  0  1  0  0  0  0  0  0  0  0  0
  -15.8186   -4.8579    1.6729 O   0  0  0  0  0  0  0  0  0  0  0  0
  -13.9492   -5.6676   -1.3727 O   0  0  0  0  0  0  0  0  0  0  0  0
  -15.0024   -5.4561   -2.3235 C   0  0  1  0  0  0  0  0  0  0  0  0
  -14.5173   -6.0944   -3.6332 C   0  0  0  0  0  0  0  0  0  0  0  0
  -13.2330   -6.7097   -3.4838 O   0  0  0  0  0  0  0  0  0  0  0  0
  -16.2747   -6.1260   -1.8322 C   0  0  1  0  0  0  0  0  0  0  0  0
  -16.0531   -7.5319   -1.6877 O   0  0  0  0  0  0  0  0  0  0  0  0
  -16.6465   -5.5046   -0.4884 C   0  0  1  0  0  0  0  0  0  0  0  0
  -17.8881   -6.0709    0.0373 N   0  0  0  0  0  4  0  0  0  0  0  0
  -19.0771   -5.5032    0.3316 C   0  0  0  0  0  0  0  0  0  0  0  0
  -17.9307   -7.3867    0.3021 N   0  0  0  0  0  0  0  0  0  0  0  0
  -19.1537   -7.6318    0.7516 N   0  0  0  0  0  0  0  0  0  0  0  0
  -19.8733   -6.4911    0.7905 C   0  0  0  0  0  0  0  0  0  0  0  0
  -21.1676   -6.4297    1.2310 C   0  0  0  0  0  0  0  0  0  0  0  0
  -21.5410   -7.1601    2.3783 C   0  0  0  0  0  0  0  0  0  0  0  0
  -22.8355   -7.0873    2.8722 C   0  0  0  0  0  0  0  0  0  0  0  0
  -23.1977   -7.8180    3.9617 F   0  0  0  0  0  0  0  0  0  0  0  0
  -23.7679   -6.2650    2.2779 C   0  0  0  0  0  0  0  0  0  0  0  0
  -25.2943   -6.3217    2.9768 Cl  0  0  0  0  0  0  0  0  0  0  0  0
  -23.4260   -5.5152    1.1504 C   0  0  0  0  0  0  0  0  0  0  0  0
  -24.3178   -4.6995    0.5485 F   0  0  0  0  0  0  0  0  0  0  0  0
  -22.1302   -5.5950    0.6287 C   0  0  0  0  0  0  0  0  0  0  0  0
  -14.1192   -9.2937   -1.9531 H   0  0  0  0  0  0  0  0  0  0  0  0
  -11.9965   -9.9831   -2.8710 H   0  0  0  0  0  0  0  0  0  0  0  0
  -10.0450   -7.1201   -0.4965 H   0  0  0  0  0  0  0  0  0  0  0  0
   -9.8858   -4.8883    3.5316 H   0  0  0  0  0  0  0  0  0  0  0  0
  -10.4519   -3.2797    3.1508 H   0  0  0  0  0  0  0  0  0  0  0  0
  -11.3533   -4.2831    4.2617 H   0  0  0  0  0  0  0  0  0  0  0  0
  -14.5103   -3.9636   -0.2611 H   0  0  0  0  0  0  0  0  0  0  0  0
  -15.3479   -6.6503    0.7489 H   0  0  0  0  0  0  0  0  0  0  0  0
  -15.9589   -3.9302    1.4269 H   0  0  0  0  0  0  0  0  0  0  0  0
  -15.2224   -4.4181   -2.4613 H   0  0  0  0  0  0  0  0  0  0  0  0
  -15.2237   -6.8380   -3.9380 H   0  0  0  0  0  0  0  0  0  0  0  0
  -14.4308   -5.3206   -4.3671 H   0  0  0  0  0  0  0  0  0  0  0  0
  -13.2880   -7.4162   -2.8215 H   0  0  0  0  0  0  0  0  0  0  0  0
  -17.0712   -5.9826   -2.5321 H   0  0  0  0  0  0  0  0  0  0  0  0
  -15.3329   -7.6824   -1.0555 H   0  0  0  0  0  0  0  0  0  0  0  0
  -16.8236   -4.4612   -0.6462 H   0  0  0  0  0  0  0  0  0  0  0  0
  -19.3282   -4.5078    0.2261 H   0  0  0  0  0  0  0  0  0  0  0  0
  -20.8448   -7.7544    2.8549 H   0  0  0  0  0  0  0  0  0  0  0  0
  -21.8776   -5.0386   -0.2029 H   0  0  0  0  0  0  0  0  0  0  0  0
  2  1  1  6
  2  3  1  0
  2  4  1  0
  2  5  1  0
  5  6  4  0
  6  7  4  0
  7  8  4  0
  8  9  1  0
  8 10  4  0
 10 11  4  0
  5 11  4  0
 11 12  1  0
 12 13  4  0
 13 14  4  0
 14 15  1  0
 14 16  4  0
 16 17  4  0
 12 17  4  0
 18 17  1  0
 18 19  1  0
 19 20  1  0
 18 21  1  0
 21 22  1  0
 22 23  1  0
 23 24  1  0
 22 25  1  0
 25 26  1  0
 25 27  1  0
 19 27  1  0
 27 28  1  0
 28 29  4  0
 28 30  4  0
 30 31  4  0
 29 32  4  0
 31 32  4  0
 32 33  1  0
 33 34  4  0
 34 35  4  0
 35 36  1  0
 35 37  4  0
 37 38  1  0
 37 39  4  0
 39 40  1  0
 39 41  4  0
 33 41  4  0
  6 42  1  0
  7 43  1  0
 10 44  1  0
 15 45  1  0
 15 46  1  0
 15 47  1  0
 18 48  1  1
 19 49  1  6
 20 50  1  0
 22 51  1  1
 23 52  1  0
 23 53  1  0
 24 54  1  0
 25 55  1  1
 26 56  1  0
 27 57  1  1
 29 58  1  0
 34 59  1  0
 41 60  1  0
M  CHG  2  12   1  28   1
M  END
