7XFA_D9J_A_301
     RDKit          3D

 41 45  0  0  0  0  0  0  0  0999 V2000
  -22.3070  -11.6020    4.3580 F   0  0  0  0  0  0  0  0  0  0  0  0
  -21.9090  -10.4630    4.7530 C   0  0  0  0  0  0  0  0  0  0  0  0
  -22.0470  -10.4080    6.1230 F   0  0  0  0  0  0  0  0  0  0  0  0
  -20.6170  -10.3960    4.4900 F   0  0  0  0  0  0  0  0  0  0  0  0
  -22.6200   -9.3840    4.1140 C   0  0  0  0  0  0  0  0  0  0  0  0
  -23.3090   -8.4190    4.8850 C   0  0  0  0  0  0  0  0  0  0  0  0
  -24.0080   -7.3710    4.2900 C   0  0  0  0  0  0  0  0  0  0  0  0
  -24.0000   -7.2300    2.9060 C   0  0  0  0  0  0  0  0  0  0  0  0
  -24.8090   -5.8790    2.1840 Cl  0  0  0  0  0  0  0  0  0  0  0  0
  -23.3160   -8.1670    2.1180 C   0  0  0  0  0  0  0  0  0  0  0  0
  -22.6380   -9.2530    2.7000 C   0  0  0  0  0  0  0  0  0  0  0  0
  -22.0020  -10.1160    1.8760 N   0  0  0  0  0  0  0  0  0  0  0  0
  -22.5220  -11.2910    1.4370 N   0  0  0  0  0  0  0  0  0  0  0  0
  -21.6100  -11.7910    0.6090 C   0  0  0  0  0  0  0  0  0  0  0  0
  -21.7970  -13.1230   -0.1050 C   0  0  0  0  0  0  0  0  0  0  0  0
  -20.5290  -11.0030    0.5190 N   0  0  0  0  0  0  0  0  0  0  0  0
  -20.7870   -9.9870    1.3320 C   0  0  0  0  0  0  0  0  0  0  0  0
  -19.9110   -8.7850    1.5570 C   0  0  1  0  0  0  0  0  0  0  0  0
  -18.4180   -9.0650    1.3910 C   0  0  2  0  0  0  0  0  0  0  0  0
  -18.0370   -9.9750    2.4330 O   0  0  0  0  0  0  0  0  0  0  0  0
  -20.3390   -7.8010    0.5890 O   0  0  0  0  0  0  0  0  0  0  0  0
  -19.6890   -6.5480    0.8450 C   0  0  2  0  0  0  0  0  0  0  0  0
  -20.3020   -5.5490   -0.1470 C   0  0  0  0  0  0  0  0  0  0  0  0
  -21.6940   -5.3300    0.1070 O   0  0  0  0  0  0  0  0  0  0  0  0
  -18.1940   -6.6930    0.6150 C   0  0  2  0  0  0  0  0  0  0  0  0
  -17.9510   -7.0750   -0.7420 O   0  0  0  0  0  0  0  0  0  0  0  0
  -17.6710   -7.7620    1.5710 C   0  0  2  0  0  0  0  0  0  0  0  0
  -16.2250   -7.9360    1.4390 N   0  0  0  0  0  0  0  0  0  0  0  0
  -15.4620   -8.3320    0.3980 C   0  0  0  0  0  0  0  0  0  0  0  0
  -15.4480   -7.6720    2.5020 N   0  0  0  0  0  0  0  0  0  0  0  0
  -14.2030   -7.9160    2.1170 N   0  0  0  0  0  0  0  0  0  0  0  0
  -14.1830   -8.3110    0.8270 C   0  0  0  0  0  0  0  0  0  0  0  0
  -13.0340   -8.6140    0.1480 C   0  0  0  0  0  0  0  0  0  0  0  0
  -11.8660   -8.9270    0.8740 C   0  0  0  0  0  0  0  0  0  0  0  0
  -10.6760   -9.2000    0.2150 C   0  0  0  0  0  0  0  0  0  0  0  0
   -9.5600   -9.5310    0.9200 F   0  0  0  0  0  0  0  0  0  0  0  0
  -10.6020   -9.1260   -1.1590 C   0  0  0  0  0  0  0  0  0  0  0  0
   -9.1000   -9.5210   -1.7990 Cl  0  0  0  0  0  0  0  0  0  0  0  0
  -11.7360   -8.8020   -1.9070 C   0  0  0  0  0  0  0  0  0  0  0  0
  -11.6930   -8.7200   -3.2540 F   0  0  0  0  0  0  0  0  0  0  0  0
  -12.9480   -8.5450   -1.2570 C   0  0  0  0  0  0  0  0  0  0  0  0
  1  2  1  0
  2  3  1  0
  2  4  1  0
  2  5  1  0
  5  6  2  0
  6  7  1  0
  7  8  2  0
  8  9  1  0
  8 10  1  0
 10 11  2  0
  5 11  1  0
 11 12  1  0
 12 13  1  0
 13 14  2  0
 14 15  1  0
 14 16  1  0
 16 17  2  0
 12 17  1  0
 18 17  1  6
 18 19  1  0
 19 20  1  1
 18 21  1  0
 21 22  1  0
 22 23  1  6
 23 24  1  0
 22 25  1  0
 25 26  1  6
 25 27  1  0
 19 27  1  0
 27 28  1  6
 28 29  1  0
 28 30  1  0
 30 31  2  0
 29 32  2  0
 31 32  1  0
 32 33  1  0
 33 34  2  0
 34 35  1  0
 35 36  1  0
 35 37  2  0
 37 38  1  0
 37 39  1  0
 39 40  1  0
 39 41  2  0
 33 41  1  0
M  END
$$$$
