7CNQ_G8X_C_602
     RDKit          3D

 18 18  0  0  0  0  0  0  0  0999 V2000
    0.4724    1.7540    0.6042 O   0  0  0  0  0  0  0  0  0  0  0  0
    2.5192   -1.2315    1.0025 O   0  0  0  0  0  0  0  0  0  0  0  0
   -0.8963   -0.8426   -0.3179 N   0  0  0  0  0  0  0  0  0  0  0  0
    0.6130    1.0142   -0.5836 C   0  0  2  0  0  0  0  0  0  0  0  0
   -0.5782    1.2581   -1.4858 C   0  0  0  0  0  0  0  0  0  0  0  0
   -1.5956    0.2037   -1.0703 C   0  0  0  0  0  0  0  0  0  0  0  0
    0.5242   -0.4846   -0.3098 C   0  0  1  0  0  0  0  0  0  0  0  0
    1.1723   -0.8835    0.9861 C   0  0  0  0  0  0  0  0  0  0  0  0
    0.5164   -0.8627    2.0628 O   0  0  0  0  0  0  0  0  0  0  0  0
    0.7600    2.6812    0.3960 H   0  0  0  0  0  0  0  0  0  0  0  0
    2.9794   -1.4864    1.8682 H   0  0  0  0  0  0  0  0  0  0  0  0
   -1.0132   -1.7587   -0.8126 H   0  0  0  0  0  0  0  0  0  0  0  0
    1.5721    1.2668   -1.0938 H   0  0  0  0  0  0  0  0  0  0  0  0
   -0.2813    1.0934   -2.5454 H   0  0  0  0  0  0  0  0  0  0  0  0
   -0.9854    2.2875   -1.3791 H   0  0  0  0  0  0  0  0  0  0  0  0
   -2.3623    0.6633   -0.4103 H   0  0  0  0  0  0  0  0  0  0  0  0
   -2.1072   -0.2168   -1.9654 H   0  0  0  0  0  0  0  0  0  0  0  0
    1.0437   -1.0210   -1.1388 H   0  0  0  0  0  0  0  0  0  0  0  0
  4  1  1  0
  4  5  1  0
  5  6  1  0
  3  6  1  0
  4  7  1  0
  3  7  1  0
  7  8  1  0
  2  8  1  0
  8  9  2  0
  1 10  1  0
  2 11  1  0
  3 12  1  0
  4 13  1  6
  5 14  1  0
  5 15  1  0
  6 16  1  0
  6 17  1  0
  7 18  1  6
M  END
