8G0V_YHT_C_701
     RDKit          3D

 42 44  0  0  0  0  0  0  0  0999 V2000
   -0.6684    1.1303    2.0042 C   0  0  1  0  0  0  0  0  0  0  0  0
    0.1761    2.2264    1.3828 C   0  0  2  0  0  0  0  0  0  0  0  0
    1.3227    1.4572    0.7041 C   0  0  2  0  0  0  0  0  0  0  0  0
    2.0780    2.4721   -1.4867 C   0  0  0  0  0  0  0  0  0  0  0  0
    0.7140    1.6346   -2.8705 C   0  0  0  0  0  0  0  0  0  0  0  0
    0.4318    1.1420   -1.6432 C   0  0  0  0  0  0  0  0  0  0  0  0
   -0.4174   -6.6187    1.5488 C   0  0  0  0  0  0  0  0  0  0  0  0
    0.3770   -7.5053    1.7390 C   0  0  0  0  0  0  0  0  0  0  0  0
   -0.3837   -1.3956    2.0627 C   0  0  0  0  0  0  0  0  0  0  0  0
   -1.3820   -5.5428    1.3186 C   0  0  0  0  0  0  0  0  0  0  0  0
   -1.3566   -0.0965   -2.4854 C   0  0  0  0  0  0  0  0  0  0  0  0
   -0.0570    1.2561   -3.9640 C   0  0  0  0  0  0  0  0  0  0  0  0
    0.3130   -0.0305    2.0870 C   0  0  1  0  0  0  0  0  0  0  0  0
    1.2889    1.6500   -0.7476 N   0  0  0  0  0  0  0  0  0  0  0  0
    1.7555    2.4857   -2.8100 N   0  0  0  0  0  0  0  0  0  0  0  0
   -0.5929    0.2854   -1.4181 N   0  0  0  0  0  0  0  0  0  0  0  0
   -1.0874    0.3858   -3.7414 N   0  0  0  0  0  0  0  0  0  0  0  0
    0.2033    1.7536   -5.2765 N   0  0  0  0  0  0  0  0  0  0  0  0
   -1.1505    1.4735    3.2778 O   0  0  0  0  0  0  0  0  0  0  0  0
    1.2070    0.0813    1.0046 O   0  0  0  0  0  0  0  0  0  0  0  0
    0.6659    3.1370    2.3405 O   0  0  0  0  0  0  0  0  0  0  0  0
   -1.0154   -1.5895    0.8188 O   0  0  0  0  0  0  0  0  0  0  0  0
   -3.0178   -3.0738    2.0413 O   0  0  0  0  0  0  0  0  0  0  0  0
   -0.6821   -4.3328    1.1673 O   0  0  0  0  0  0  0  0  0  0  0  0
   -2.4526   -3.3278   -0.5003 O   0  0  0  0  0  0  0  0  0  0  0  0
   -1.8129   -3.0946    0.8502 P   0  0  2  0  0  5  0  0  0  0  0  0
   -1.5148    0.8804    1.3215 H   0  0  0  0  0  0  0  0  0  0  0  0
   -0.4324    2.7933    0.6435 H   0  0  0  0  0  0  0  0  0  0  0  0
    2.3063    1.8100    1.0884 H   0  0  0  0  0  0  0  0  0  0  0  0
    2.8790    3.0677   -1.0682 H   0  0  0  0  0  0  0  0  0  0  0  0
    1.0744   -8.2835    1.9060 H   0  0  0  0  0  0  0  0  0  0  0  0
   -1.1200   -1.4281    2.8982 H   0  0  0  0  0  0  0  0  0  0  0  0
    0.3924   -2.1764    2.2299 H   0  0  0  0  0  0  0  0  0  0  0  0
   -1.9576   -5.7935    0.3998 H   0  0  0  0  0  0  0  0  0  0  0  0
   -2.0616   -5.5026    2.1981 H   0  0  0  0  0  0  0  0  0  0  0  0
   -2.1795   -0.7823   -2.3380 H   0  0  0  0  0  0  0  0  0  0  0  0
    0.8977    0.0432    3.0333 H   0  0  0  0  0  0  0  0  0  0  0  0
   -0.3935    1.4536   -6.0789 H   0  0  0  0  0  0  0  0  0  0  0  0
    0.9891    2.4182   -5.4538 H   0  0  0  0  0  0  0  0  0  0  0  0
   -1.8846    2.1258    3.1322 H   0  0  0  0  0  0  0  0  0  0  0  0
    1.1975    2.6279    3.0079 H   0  0  0  0  0  0  0  0  0  0  0  0
   -3.5671   -2.2769    1.8307 H   0  0  0  0  0  0  0  0  0  0  0  0
  1  2  1  0
  2  3  1  0
  5  6  2  0
  7  8  3  0
  7 10  1  0
  5 12  1  0
 13  9  1  0
  1 13  1  0
  4 14  1  0
  6 14  1  0
  3 14  1  0
  4 15  2  0
  5 15  1  0
  6 16  1  0
 11 16  2  0
 12 17  2  0
 11 17  1  0
 12 18  1  0
  1 19  1  0
  3 20  1  0
 13 20  1  0
  2 21  1  0
  9 22  1  0
 10 24  1  0
 25 26  2  0
 26 24  1  1
 22 26  1  0
 26 23  1  0
  1 27  1  6
  2 28  1  6
  3 29  1  1
  4 30  1  0
  8 31  1  0
  9 32  1  0
  9 33  1  0
 10 34  1  0
 10 35  1  0
 11 36  1  0
 13 37  1  1
 18 38  1  0
 18 39  1  0
 19 40  1  0
 21 41  1  0
 23 42  1  0
M  END
