6XCT_478_A_401
     RDKit          3D

 70 72  0  0  0  0  0  0  0  0999 V2000
   16.3277   17.9722  -16.4995 C   0  0  1  0  0  0  0  0  0  0  0  0
   17.9133   18.4431  -14.8258 C   0  0  2  0  0  0  0  0  0  0  0  0
   15.1228   19.2471  -13.2181 C   0  0  0  0  0  0  0  0  0  0  0  0
   16.5083   18.7754  -15.2242 C   0  0  2  0  0  0  0  0  0  0  0  0
   13.8809   19.5262  -11.0160 C   0  0  2  0  0  0  0  0  0  0  0  0
   13.4795   18.6736   -9.7867 C   0  0  1  0  0  0  0  0  0  0  0  0
   12.6757   20.2457  -11.6630 C   0  0  2  0  0  0  0  0  0  0  0  0
   11.3931   19.4531  -11.5772 C   0  0  0  0  0  0  0  0  0  0  0  0
   10.2152   20.0580  -11.1053 C   0  0  0  0  0  0  0  0  0  0  0  0
   11.3616   18.1050  -11.9734 C   0  0  0  0  0  0  0  0  0  0  0  0
    9.0308   19.3209  -11.0170 C   0  0  0  0  0  0  0  0  0  0  0  0
   10.1749   17.3716  -11.8837 C   0  0  0  0  0  0  0  0  0  0  0  0
    9.0130   17.9767  -11.3975 C   0  0  0  0  0  0  0  0  0  0  0  0
   14.6952   18.4051   -8.8802 C   0  0  1  0  0  0  0  0  0  0  0  0
   13.9959   19.9947   -7.1157 C   0  0  1  0  0  0  0  0  0  0  0  0
   13.9848   20.2914   -5.5831 C   0  0  1  0  0  0  0  0  0  0  0  0
   16.0013   16.3132   -6.9663 C   0  0  0  0  0  0  0  0  0  0  0  0
   17.1268   15.6867   -6.4148 C   0  0  0  0  0  0  0  0  0  0  0  0
   17.5411   14.4395   -6.8906 C   0  0  0  0  0  0  0  0  0  0  0  0
   16.8308   13.8052   -7.9194 C   0  0  0  0  0  0  0  0  0  0  0  0
   15.6884   14.4189   -8.4515 C   0  0  0  0  0  0  0  0  0  0  0  0
   15.2761   15.6680   -7.9784 C   0  0  0  0  0  0  0  0  0  0  0  0
   13.2813   19.1690   -4.8081 C   0  0  2  0  0  0  0  0  0  0  0  0
   15.4096   20.4775   -5.0417 C   0  0  1  0  0  0  0  0  0  0  0  0
   18.5731   18.1262  -16.1529 C   0  0  2  0  0  0  0  0  0  0  0  0
   14.5685   18.7015  -12.0166 N   0  0  0  0  0  0  0  0  0  0  0  0
   14.3234   18.5951   -7.4623 N   0  0  0  0  0  0  0  0  0  0  0  0
   17.2719   12.5437   -8.4272 N   0  0  0  0  0  0  0  0  0  0  0  0
   15.5850   18.3783  -14.2111 O   0  0  0  0  0  0  0  0  0  0  0  0
   15.1961   20.4969  -13.3768 O   0  0  0  0  0  0  0  0  0  0  0  0
   12.4968   19.3543   -9.0467 O   0  0  0  0  0  0  0  0  0  0  0  0
   16.6921   18.7760   -6.2160 O   0  0  0  0  0  0  0  0  0  0  0  0
   14.8662   17.6971   -5.0082 O   0  0  0  0  0  0  0  0  0  0  0  0
   17.5882   17.7655  -17.0953 O   0  0  0  0  0  0  0  0  0  0  0  0
   15.4889   17.8862   -6.3635 S   0  0  2  0  0  6  0  0  0  0  0  0
   15.8739   16.9818  -16.2749 H   0  0  0  0  0  0  0  0  0  0  0  0
   15.6646   18.5144  -17.2067 H   0  0  0  0  0  0  0  0  0  0  0  0
   17.9340   17.5431  -14.1713 H   0  0  0  0  0  0  0  0  0  0  0  0
   18.4077   19.2949  -14.3104 H   0  0  0  0  0  0  0  0  0  0  0  0
   16.4241   19.8671  -15.4305 H   0  0  0  0  0  0  0  0  0  0  0  0
   14.5799   20.3140  -10.6549 H   0  0  0  0  0  0  0  0  0  0  0  0
   13.0766   17.7040  -10.1537 H   0  0  0  0  0  0  0  0  0  0  0  0
   12.9079   20.4477  -12.7315 H   0  0  0  0  0  0  0  0  0  0  0  0
   12.5360   21.2436  -11.1928 H   0  0  0  0  0  0  0  0  0  0  0  0
   10.2162   21.0970  -10.8003 H   0  0  0  0  0  0  0  0  0  0  0  0
   12.2553   17.6221  -12.3473 H   0  0  0  0  0  0  0  0  0  0  0  0
    8.1275   19.7901  -10.6491 H   0  0  0  0  0  0  0  0  0  0  0  0
   10.1562   16.3333  -12.1897 H   0  0  0  0  0  0  0  0  0  0  0  0
    8.0960   17.4066  -11.3230 H   0  0  0  0  0  0  0  0  0  0  0  0
   15.0900   17.3807   -9.0528 H   0  0  0  0  0  0  0  0  0  0  0  0
   15.5022   19.1092   -9.1831 H   0  0  0  0  0  0  0  0  0  0  0  0
   13.0213   20.2642   -7.5779 H   0  0  0  0  0  0  0  0  0  0  0  0
   14.7276   20.6534   -7.6344 H   0  0  0  0  0  0  0  0  0  0  0  0
   13.4240   21.2247   -5.3716 H   0  0  0  0  0  0  0  0  0  0  0  0
   17.6839   16.1651   -5.6191 H   0  0  0  0  0  0  0  0  0  0  0  0
   18.4176   13.9706   -6.4621 H   0  0  0  0  0  0  0  0  0  0  0  0
   15.1223   13.9327   -9.2361 H   0  0  0  0  0  0  0  0  0  0  0  0
   14.3915   16.1278   -8.4004 H   0  0  0  0  0  0  0  0  0  0  0  0
   13.3039   18.2241   -5.3924 H   0  0  0  0  0  0  0  0  0  0  0  0
   12.2229   19.4379   -4.6027 H   0  0  0  0  0  0  0  0  0  0  0  0
   13.7979   18.9871   -3.8425 H   0  0  0  0  0  0  0  0  0  0  0  0
   16.1169   20.6930   -5.8686 H   0  0  0  0  0  0  0  0  0  0  0  0
   15.4422   21.3326   -4.3333 H   0  0  0  0  0  0  0  0  0  0  0  0
   15.7501   19.5616   -4.5126 H   0  0  0  0  0  0  0  0  0  0  0  0
   19.3012   17.2957  -16.0362 H   0  0  0  0  0  0  0  0  0  0  0  0
   19.1147   19.0211  -16.5286 H   0  0  0  0  0  0  0  0  0  0  0  0
   14.5968   17.6635  -11.8944 H   0  0  0  0  0  0  0  0  0  0  0  0
   16.9388   12.1947   -9.3535 H   0  0  0  0  0  0  0  0  0  0  0  0
   17.9369   11.9521   -7.8819 H   0  0  0  0  0  0  0  0  0  0  0  0
   12.9716   19.9440   -8.4051 H   0  0  0  0  0  0  0  0  0  0  0  0
  1  4  1  0
  2  4  1  0
  5  6  1  0
  5  7  1  0
  7  8  1  0
  8  9  2  0
  8 10  1  0
  9 11  1  0
 10 12  2  0
 11 13  2  0
 12 13  1  0
  6 14  1  0
 15 16  1  0
 17 18  2  0
 18 19  1  0
 19 20  2  0
 20 21  1  0
 17 22  1  0
 21 22  2  0
 16 23  1  0
 16 24  1  0
  2 25  1  0
  3 26  1  0
  5 26  1  0
 14 27  1  0
 15 27  1  0
 20 28  1  0
  3 29  1  0
  4 29  1  0
  3 30  2  0
  6 31  1  0
  1 34  1  0
 25 34  1  0
 17 35  1  0
 35 27  1  6
 32 35  2  0
 33 35  2  0
  1 36  1  1
  1 37  1  0
  2 38  1  1
  2 39  1  0
  4 40  1  6
  5 41  1  1
  6 42  1  6
  7 43  1  6
  7 44  1  0
  9 45  1  0
 10 46  1  0
 11 47  1  0
 12 48  1  0
 13 49  1  0
 14 50  1  1
 14 51  1  0
 15 52  1  6
 15 53  1  0
 16 54  1  6
 18 55  1  0
 19 56  1  0
 21 57  1  0
 22 58  1  0
 23 59  1  6
 23 60  1  0
 23 61  1  0
 24 62  1  6
 24 63  1  0
 24 64  1  0
 25 65  1  1
 25 66  1  0
 26 67  1  0
 28 68  1  0
 28 69  1  0
 31 70  1  0
M  END
