7AKL_RK5_A_501
     RDKit          3D

 34 36  0  0  0  0  0  0  0  0999 V2000
   40.8626    5.8039    8.5054 C   0  0  0  0  0  0  0  0  0  0  0  0
   41.4862    5.4923    9.8091 C   0  0  0  0  0  0  0  0  0  0  0  0
   41.9400    6.3265   10.7749 C   0  0  0  0  0  0  0  0  0  0  0  0
   41.8815    7.8209   10.8424 C   0  0  0  0  0  0  0  0  0  0  0  0
   42.3984    5.4863   11.8475 C   0  0  0  0  0  0  0  0  0  0  0  0
   42.9530    5.7333   13.0990 C   0  0  0  0  0  0  0  0  0  0  0  0
   43.3379    4.6640   13.8927 C   0  0  0  0  0  0  0  0  0  0  0  0
   43.1564    3.3468   13.3933 C   0  0  0  0  0  0  0  0  0  0  0  0
   42.6077    3.0805   12.1500 C   0  0  0  0  0  0  0  0  0  0  0  0
   42.2382    4.1781   11.4108 C   0  0  0  0  0  0  0  0  0  0  0  0
   41.6681    4.1607   10.1507 O   0  0  0  0  0  0  0  0  0  0  0  0
   43.8836    4.8969   15.2651 C   0  0  0  0  0  0  0  0  0  0  0  0
   44.3319    3.8349   16.0584 C   0  0  0  0  0  0  0  0  0  0  0  0
   44.8672    4.0755   17.3360 C   0  0  0  0  0  0  0  0  0  0  0  0
   45.2862    3.0570   18.1321 N   0  0  0  0  0  0  0  0  0  0  0  0
   45.0739    5.3273   17.7764 N   0  0  0  0  0  0  0  0  0  0  0  0
   44.6958    6.3636   17.0041 C   0  0  0  0  0  0  0  0  0  0  0  0
   44.9279    7.5939   17.4940 N   0  0  0  0  0  0  0  0  0  0  0  0
   44.0860    6.1895   15.7471 C   0  0  0  0  0  0  0  0  0  0  0  0
   40.7914    6.8652    8.3887 H   0  0  0  0  0  0  0  0  0  0  0  0
   39.8834    5.3743    8.4666 H   0  0  0  0  0  0  0  0  0  0  0  0
   41.4616    5.3978    7.7173 H   0  0  0  0  0  0  0  0  0  0  0  0
   41.5054    8.2053    9.9173 H   0  0  0  0  0  0  0  0  0  0  0  0
   42.8634    8.2087   11.0169 H   0  0  0  0  0  0  0  0  0  0  0  0
   41.2340    8.1168   11.6412 H   0  0  0  0  0  0  0  0  0  0  0  0
   43.0765    6.7020   13.4329 H   0  0  0  0  0  0  0  0  0  0  0  0
   43.4467    2.5519   13.9840 H   0  0  0  0  0  0  0  0  0  0  0  0
   42.4840    2.1175   11.8004 H   0  0  0  0  0  0  0  0  0  0  0  0
   44.2691    2.8680   15.7030 H   0  0  0  0  0  0  0  0  0  0  0  0
   45.1544    2.1238   17.8476 H   0  0  0  0  0  0  0  0  0  0  0  0
   45.7214    3.2523   18.9932 H   0  0  0  0  0  0  0  0  0  0  0  0
   45.3551    7.7006   18.3745 H   0  0  0  0  0  0  0  0  0  0  0  0
   44.6707    8.3882   16.9722 H   0  0  0  0  0  0  0  0  0  0  0  0
   43.7929    7.0074   15.1901 H   0  0  0  0  0  0  0  0  0  0  0  0
  1  2  1  0
  2  3  4  0
  3  4  1  0
  3  5  4  0
  5  6  4  0
  6  7  4  0
  7  8  4  0
  8  9  4  0
  5 10  4  0
  9 10  4  0
  2 11  4  0
 10 11  4  0
  7 12  1  0
 12 13  4  0
 13 14  4  0
 14 15  1  0
 14 16  4  0
 16 17  4  0
 17 18  1  0
 17 19  4  0
 12 19  4  0
  1 20  1  0
  1 21  1  0
  1 22  1  0
  4 23  1  0
  4 24  1  0
  4 25  1  0
  6 26  1  0
  8 27  1  0
  9 28  1  0
 13 29  1  0
 15 30  1  0
 15 31  1  0
 18 32  1  0
 18 33  1  0
 19 34  1  0
M  END
