6YJA_2BA_B_201
     RDKit          3D

 68 74  0  0  0  0  0  0  0  0999 V2000
   -2.3979    0.0308    1.1150 P   0  0  2  0  0  5  0  0  0  0  0  0
   -3.4592    1.1111    1.1280 O   0  0  0  0  0  0  0  0  0  0  0  0
   -1.8906   -0.2547    2.7054 O   0  0  0  0  0  0  0  0  0  0  0  0
   -1.0357    0.4344    0.1682 O   0  0  0  0  0  0  0  0  0  0  0  0
   -1.0710    1.7718   -0.2701 C   0  0  0  0  0  0  0  0  0  0  0  0
   -0.2789    1.8819   -1.5800 C   0  0  1  0  0  0  0  0  0  0  0  0
   -0.1567    3.2410   -1.9390 O   0  0  0  0  0  0  0  0  0  0  0  0
    1.1181    1.2346   -1.4957 C   0  0  1  0  0  0  0  0  0  0  0  0
    1.2464    0.2881   -2.5462 O   0  0  0  0  0  0  0  0  0  0  0  0
    2.0495    2.4071   -1.7174 C   0  0  1  0  0  0  0  0  0  0  0  0
    3.1409    2.0767   -2.5393 O   0  0  0  0  0  0  0  0  0  0  0  0
    1.1592    3.4354   -2.3923 C   0  0  2  0  0  0  0  0  0  0  0  0
    1.6020    4.7956   -2.0783 N   0  0  0  0  0  0  0  0  0  0  0  0
    2.4196    5.5873   -2.8198 C   0  0  0  0  0  0  0  0  0  0  0  0
    2.7141    6.7735   -2.2185 N   0  0  0  0  0  0  0  0  0  0  0  0
    2.0470    6.6889   -1.0516 C   0  0  0  0  0  0  0  0  0  0  0  0
    1.9801    7.5991   -0.0015 C   0  0  0  0  0  0  0  0  0  0  0  0
    2.6527    8.8576   -0.0514 N   0  0  0  0  0  0  0  0  0  0  0  0
    1.2451    7.2466    1.0964 N   0  0  0  0  0  0  0  0  0  0  0  0
    0.5991    6.0377    1.1655 C   0  0  0  0  0  0  0  0  0  0  0  0
    0.6712    5.1517    0.1262 N   0  0  0  0  0  0  0  0  0  0  0  0
    1.3926    5.5087   -0.9636 C   0  0  0  0  0  0  0  0  0  0  0  0
    1.6837   -1.2477   -1.9332 P   0  0  2  0  0  5  0  0  0  0  0  0
    2.9380   -1.1237   -1.0980 O   0  0  0  0  0  0  0  0  0  0  0  0
    2.0079   -2.2792   -3.2345 O   0  0  0  0  0  0  0  0  0  0  0  0
    0.4420   -1.9224   -0.9740 O   0  0  0  0  0  0  0  0  0  0  0  0
   -0.7378   -2.0096   -1.7429 C   0  0  0  0  0  0  0  0  0  0  0  0
   -1.7980   -2.8552   -1.0171 C   0  0  1  0  0  0  0  0  0  0  0  0
   -1.3870   -4.2018   -0.9813 O   0  0  0  0  0  0  0  0  0  0  0  0
   -2.0804   -2.4132    0.4189 C   0  0  1  0  0  0  0  0  0  0  0  0
   -3.0709   -1.3977    0.4673 O   0  0  0  0  0  0  0  0  0  0  0  0
   -2.5890   -3.6963    1.0435 C   0  0  1  0  0  0  0  0  0  0  0  0
   -3.9978   -3.7705    1.0542 O   0  0  0  0  0  0  0  0  0  0  0  0
   -1.9821   -4.7941    0.1556 C   0  0  2  0  0  0  0  0  0  0  0  0
   -0.9742   -5.5555    0.8969 N   0  0  0  0  0  0  0  0  0  0  0  0
    0.3235   -5.2224    1.1288 C   0  0  0  0  0  0  0  0  0  0  0  0
    0.9746   -6.1110    1.9306 N   0  0  0  0  0  0  0  0  0  0  0  0
    0.0176   -7.0179    2.2056 C   0  0  0  0  0  0  0  0  0  0  0  0
    0.0782   -8.1520    3.0074 C   0  0  0  0  0  0  0  0  0  0  0  0
    1.2834   -8.5503    3.6617 N   0  0  0  0  0  0  0  0  0  0  0  0
   -1.0655   -8.8881    3.1497 N   0  0  0  0  0  0  0  0  0  0  0  0
   -2.2335   -8.5252    2.5252 C   0  0  0  0  0  0  0  0  0  0  0  0
   -2.2815   -7.4076    1.7395 N   0  0  0  0  0  0  0  0  0  0  0  0
   -1.1444   -6.6828    1.5985 C   0  0  0  0  0  0  0  0  0  0  0  0
   -2.6815   -0.6449    3.1554 H   0  0  0  0  0  0  0  0  0  0  0  0
   -2.0946    2.1410   -0.4962 H   0  0  0  0  0  0  0  0  0  0  0  0
   -0.6126    2.4241    0.5038 H   0  0  0  0  0  0  0  0  0  0  0  0
   -0.8774    1.3764   -2.3715 H   0  0  0  0  0  0  0  0  0  0  0  0
    1.3225    0.8251   -0.4764 H   0  0  0  0  0  0  0  0  0  0  0  0
    2.3990    2.7998   -0.7315 H   0  0  0  0  0  0  0  0  0  0  0  0
    3.8221    1.6634   -1.9483 H   0  0  0  0  0  0  0  0  0  0  0  0
    1.1721    3.2874   -3.4970 H   0  0  0  0  0  0  0  0  0  0  0  0
    2.8108    5.3028   -3.7881 H   0  0  0  0  0  0  0  0  0  0  0  0
    3.2263    9.1292   -0.8831 H   0  0  0  0  0  0  0  0  0  0  0  0
    2.5855    9.5222    0.7533 H   0  0  0  0  0  0  0  0  0  0  0  0
    0.0302    5.7832    2.0491 H   0  0  0  0  0  0  0  0  0  0  0  0
    2.6652   -1.7819   -3.7887 H   0  0  0  0  0  0  0  0  0  0  0  0
   -1.1540   -0.9984   -1.9278 H   0  0  0  0  0  0  0  0  0  0  0  0
   -0.5470   -2.4935   -2.7281 H   0  0  0  0  0  0  0  0  0  0  0  0
   -2.7385   -2.7991   -1.6127 H   0  0  0  0  0  0  0  0  0  0  0  0
   -1.1205   -2.1653    0.9339 H   0  0  0  0  0  0  0  0  0  0  0  0
   -2.2318   -3.7713    2.0952 H   0  0  0  0  0  0  0  0  0  0  0  0
   -4.3204   -3.6825    0.1176 H   0  0  0  0  0  0  0  0  0  0  0  0
   -2.7739   -5.4932   -0.1951 H   0  0  0  0  0  0  0  0  0  0  0  0
    0.7965   -4.3358    0.7248 H   0  0  0  0  0  0  0  0  0  0  0  0
    2.1796   -8.0351    3.5042 H   0  0  0  0  0  0  0  0  0  0  0  0
    1.2887   -9.3875    4.2870 H   0  0  0  0  0  0  0  0  0  0  0  0
   -3.1219   -9.1282    2.6561 H   0  0  0  0  0  0  0  0  0  0  0  0
  1  2  2  0
  1  3  1  1
  1  4  1  0
  4  5  1  0
  6  5  1  0
  6  7  1  0
  6  8  1  0
  8  9  1  0
  8 10  1  0
 10 11  1  0
  7 12  1  0
 10 12  1  0
 12 13  1  0
 13 14  1  0
 14 15  2  0
 15 16  1  0
 16 17  1  0
 17 18  1  0
 17 19  2  0
 19 20  1  0
 20 21  2  0
 13 22  1  0
 16 22  2  0
 21 22  1  0
  9 23  1  0
 23 24  2  0
 23 25  1  6
 23 26  1  0
 26 27  1  0
 28 27  1  0
 28 29  1  0
 28 30  1  0
  1 31  1  0
 30 31  1  0
 30 32  1  0
 32 33  1  0
 29 34  1  0
 32 34  1  0
 34 35  1  0
 35 36  1  0
 36 37  2  0
 37 38  1  0
 38 39  1  0
 39 40  1  0
 39 41  2  0
 41 42  1  0
 42 43  2  0
 35 44  1  0
 38 44  2  0
 43 44  1  0
  3 45  1  0
  5 46  1  0
  5 47  1  0
  6 48  1  6
  8 49  1  1
 10 50  1  1
 11 51  1  0
 12 52  1  6
 14 53  1  0
 18 54  1  0
 18 55  1  0
 20 56  1  0
 25 57  1  0
 27 58  1  0
 27 59  1  0
 28 60  1  6
 30 61  1  1
 32 62  1  1
 33 63  1  0
 34 64  1  6
 36 65  1  0
 40 66  1  0
 40 67  1  0
 42 68  1  0
M  END
