7V14_ORU_A_702
     RDKit          3D

 35 40  0  0  0  0  0  0  0  0999 V2000
   32.7394    4.9842   -3.8915 C   0  0  0  0  0  0  0  0  0  0  0  0
   31.9077    4.0484   -4.5077 C   0  0  0  0  0  0  0  0  0  0  0  0
   32.3959    3.2285   -5.5282 C   0  0  0  0  0  0  0  0  0  0  0  0
   33.7232    3.3621   -5.9159 C   0  0  0  0  0  0  0  0  0  0  0  0
   34.3700    2.5395   -6.9844 C   0  0  1  0  0  0  0  0  0  0  0  0
   34.4764    0.3539   -8.0724 C   0  0  1  0  0  0  0  0  0  0  0  0
   34.0773    3.2575  -10.4754 C   0  0  0  0  0  0  0  0  0  0  0  0
   34.9569    3.6253  -14.2123 C   0  0  0  0  0  0  0  0  0  0  0  0
   32.8686    5.6792   -1.5492 C   0  0  0  0  0  0  0  0  0  0  0  0
   32.4896    6.4778   -0.4692 C   0  0  0  0  0  0  0  0  0  0  0  0
   31.5142    7.4653   -0.6144 C   0  0  0  0  0  0  0  0  0  0  0  0
   35.1594   -0.9848   -7.9888 C   0  0  0  0  0  0  0  0  0  0  0  0
   33.7228   -0.9019   -8.4312 C   0  0  0  0  0  0  0  0  0  0  0  0
   34.7751    2.6927   -9.4261 C   0  0  0  0  0  0  0  0  0  0  0  0
   32.9358    3.8328   -9.8836 C   0  0  0  0  0  0  0  0  0  0  0  0
   34.5125    3.2582  -11.8676 C   0  0  0  0  0  0  0  0  0  0  0  0
   35.4784    2.4505  -12.4284 C   0  0  0  0  0  0  0  0  0  0  0  0
   32.2884    5.8518   -2.8052 C   0  0  0  0  0  0  0  0  0  0  0  0
   30.9176    7.6396   -1.8660 C   0  0  0  0  0  0  0  0  0  0  0  0
   34.0547    5.0566   -4.3321 C   0  0  0  0  0  0  0  0  0  0  0  0
   31.3054    6.8381   -2.9460 C   0  0  0  0  0  0  0  0  0  0  0  0
   29.4501    7.6684   -4.3308 C   0  0  0  0  0  0  0  0  0  0  0  0
   34.1150    1.0603   -6.8168 C   0  0  0  0  0  0  0  0  0  0  0  0
   33.8134    4.7336   -1.4075 F   0  0  0  0  0  0  0  0  0  0  0  0
   34.0195    2.9564   -8.3244 N   0  0  0  0  0  0  0  0  0  0  0  0
   32.8964    3.6523   -8.5587 N   0  0  0  0  0  0  0  0  0  0  0  0
   34.5126    4.2667   -5.3171 N   0  0  0  0  0  0  0  0  0  0  0  0
   35.7267    2.6552  -13.7713 N   0  0  0  0  0  0  0  0  0  0  0  0
   30.6373    7.0338   -4.1537 N   0  0  0  0  0  0  0  0  0  0  0  0
   29.1482    7.6279   -5.6101 N   0  0  0  0  0  0  0  0  0  0  0  0
   30.1844    6.9505   -6.2088 N   0  0  0  0  0  0  0  0  0  0  0  0
   31.1006    6.5791   -5.3223 N   0  0  0  0  0  0  0  0  0  0  0  0
   35.7140    4.3652   -5.6694 O   0  0  0  0  0  0  0  0  0  0  0  0
   33.8939    4.3290  -13.0613 S   0  0  0  0  0  0  0  0  0  0  0  0
   33.2215    6.2536    1.0755 Cl  0  0  0  0  0  0  0  0  0  0  0  0
  1  2  2  0
  2  3  1  0
  3  4  2  0
  4  5  1  0
  9 10  2  0
 10 11  1  0
  6 12  1  0
  6 13  1  0
 12 13  1  0
  7 14  2  0
  7 15  1  0
  7 16  1  0
 16 17  2  0
  1 18  1  0
  9 18  1  0
 11 19  2  0
  1 20  1  0
 18 21  2  0
 19 21  1  0
  6 23  1  1
  5 23  1  1
  9 24  1  0
  5 25  1  0
 14 25  1  0
 25 26  1  0
 15 26  2  0
  4 27  1  0
 20 27  2  0
 17 28  1  0
  8 28  2  0
 22 29  1  0
 21 29  1  0
 22 30  2  0
 30 31  1  0
 29 32  1  0
 31 32  2  0
 27 33  1  0
 16 34  1  0
  8 34  1  0
 10 35  1  0
M  CHG  2  27   1  33  -1
M  END
