8DSC_NCA_B_1101
     RDKit          3D

 15 15  0  0  0  0  0  0  0  0999 V2000
   -4.5903   -7.0655   -3.1632 N   0  0  0  0  0  0  0  0  0  0  0  0
   -3.2469   -7.2762   -3.1512 C   0  0  0  0  0  0  0  0  0  0  0  0
   -2.7099   -8.4767   -3.6497 C   0  0  0  0  0  0  0  0  0  0  0  0
   -3.5994   -9.4495   -4.1390 C   0  0  0  0  0  0  0  0  0  0  0  0
   -4.9743   -9.2072   -4.1385 C   0  0  0  0  0  0  0  0  0  0  0  0
   -5.4561   -7.9955   -3.6437 C   0  0  0  0  0  0  0  0  0  0  0  0
   -1.2441   -8.7039   -3.6297 C   0  0  0  0  0  0  0  0  0  0  0  0
   -0.6675   -8.9544   -2.5369 O   0  0  0  0  0  0  0  0  0  0  0  0
   -0.4586   -8.6311   -4.8228 N   0  0  0  0  0  0  0  0  0  0  0  0
   -2.5995   -6.5014   -2.7610 H   0  0  0  0  0  0  0  0  0  0  0  0
   -3.2443  -10.4050   -4.4994 H   0  0  0  0  0  0  0  0  0  0  0  0
   -5.6613   -9.9555   -4.5125 H   0  0  0  0  0  0  0  0  0  0  0  0
   -6.5192   -7.7959   -3.6370 H   0  0  0  0  0  0  0  0  0  0  0  0
    0.5611   -8.8533   -4.7881 H   0  0  0  0  0  0  0  0  0  0  0  0
   -0.8527   -8.2763   -5.7210 H   0  0  0  0  0  0  0  0  0  0  0  0
  1  2  4  0
  2  3  4  0
  3  4  4  0
  4  5  4  0
  1  6  4  0
  5  6  4  0
  3  7  1  0
  7  8  2  0
  7  9  1  0
  2 10  1  0
  4 11  1  0
  5 12  1  0
  6 13  1  0
  9 14  1  0
  9 15  1  0
M  END
