7ZZB_KGX_A_302
     RDKit          3D

 51 56  0  0  0  0  0  0  0  0999 V2000
   13.8713    8.3993   13.8302 N   0  0  0  0  0  0  0  0  0  0  0  0
   15.3011   10.5868    9.0264 C   0  0  1  0  0  0  0  0  0  0  0  0
   18.0075    9.2874   11.9790 C   0  0  0  0  0  0  0  0  0  0  0  0
   13.2010    9.8927   11.9875 N   0  0  0  0  0  0  0  0  0  0  0  0
   16.8254    8.4601   12.0866 C   0  0  0  0  0  0  0  0  0  0  0  0
   15.8488   11.0675   11.2591 O   0  0  0  0  0  0  0  0  0  0  0  0
   14.4987    8.1617   15.1144 C   0  0  0  0  0  0  0  0  0  0  0  0
   13.4114    7.2319    7.5827 O   0  0  0  0  0  0  0  0  0  0  0  0
   17.0233   11.0736   10.5336 C   0  0  2  0  0  0  0  0  0  0  0  0
   16.7700   10.3162    9.2577 C   0  0  2  0  0  0  0  0  0  0  0  0
   18.0870   10.4549   11.2834 N   0  0  0  0  0  0  0  0  0  0  0  0
   14.7891   10.7705   10.4217 C   0  0  2  0  0  0  0  0  0  0  0  0
   16.1204    7.1416    9.6898 O   0  0  0  0  0  0  0  0  0  0  0  0
   14.0324    9.5437   10.8550 C   0  0  0  0  0  0  0  0  0  0  0  0
   17.4914   10.9230    8.2341 O   0  0  0  0  0  0  0  0  0  0  0  0
   13.5888    9.7154   13.3404 C   0  0  0  0  0  0  0  0  0  0  0  0
   14.7366    5.7162   11.6185 N   0  0  0  0  0  0  0  0  0  0  0  0
   16.0772    6.3729   14.8809 N   0  0  0  0  0  0  0  0  0  0  0  0
   15.9599    7.8137   14.9646 C   0  0  0  0  0  0  0  0  0  0  0  0
   13.7038   10.6521   14.1548 O   0  0  0  0  0  0  0  0  0  0  0  0
   15.8199    7.7809   12.1808 C   0  0  0  0  0  0  0  0  0  0  0  0
   14.6087    6.9533   12.2707 C   0  0  0  0  0  0  0  0  0  0  0  0
   14.4061    5.5925   10.2620 C   0  0  0  0  0  0  0  0  0  0  0  0
   14.8078    6.8532    9.5044 C   0  0  2  0  0  0  0  0  0  0  0  0
   16.8066    7.1844    8.4997 C   0  0  2  0  0  0  0  0  0  0  0  0
   15.8026    7.3170    7.4129 C   0  0  1  0  0  0  0  0  0  0  0  0
   14.5983    6.6519    8.0338 C   0  0  2  0  0  0  0  0  0  0  0  0
   17.2782    4.8214    8.1072 C   0  0  0  0  0  0  0  0  0  0  0  0
   19.4384    4.6852    8.3125 C   0  0  0  0  0  0  0  0  0  0  0  0
   19.0423    5.9903    8.5162 C   0  0  0  0  0  0  0  0  0  0  0  0
   21.2609    6.5100    8.8515 C   0  0  0  0  0  0  0  0  0  0  0  0
   20.7520    4.2700    8.3745 C   0  0  0  0  0  0  0  0  0  0  0  0
   15.4446    4.6661   12.2203 C   0  0  0  0  0  0  0  0  0  0  0  0
   14.6799    3.4197   12.4706 C   0  0  0  0  0  0  0  0  0  0  0  0
   20.0661   10.0462   12.2136 C   0  0  0  0  0  0  0  0  0  0  0  0
   19.3410   10.9115   11.4300 C   0  0  0  0  0  0  0  0  0  0  0  0
   21.2317   12.3290   11.1992 C   0  0  0  0  0  0  0  0  0  0  0  0
   21.3840   10.3593   12.4705 C   0  0  0  0  0  0  0  0  0  0  0  0
   19.2166    9.0555   12.5363 N   0  0  0  0  0  0  0  0  0  0  0  0
   19.9460   12.0126   10.9555 N   0  0  0  0  0  0  0  0  0  0  0  0
   21.9665   11.4814   11.9751 N   0  0  0  0  0  0  0  0  0  0  0  0
   22.1474    9.4771   13.2782 N   0  0  0  0  0  0  0  0  0  0  0  0
   17.7197    6.0861    8.3928 N   0  0  0  0  0  0  0  0  0  0  0  0
   18.3308    3.9946    8.0640 N   0  0  0  0  0  0  0  0  0  0  0  0
   19.9789    6.8989    8.7878 N   0  0  0  0  0  0  0  0  0  0  0  0
   21.6640    5.2351    8.6540 N   0  0  0  0  0  0  0  0  0  0  0  0
   21.1128    2.9220    8.1589 N   0  0  0  0  0  0  0  0  0  0  0  0
   15.0973   11.7279    8.2590 O   0  0  0  0  0  0  0  0  0  0  0  0
   15.4253    8.6581    7.2028 O   0  0  0  0  0  0  0  0  0  0  0  0
   15.2579    2.3170   13.0785 O   0  0  0  0  0  0  0  0  0  0  0  0
   13.4630    3.4307   12.0915 O   0  0  0  0  0  0  0  0  0  0  0  0
  3  5  1  0
  7  1  1  1
  6  9  1  0
  9 10  1  0
  2 10  1  0
  3 11  1  0
  9 11  1  1
 12  6  1  1
  2 12  1  0
 14  4  1  6
 12 14  1  0
 10 15  1  6
  1 16  1  0
  4 16  1  0
 19 18  1  1
  7 19  1  0
 16 20  2  0
  5 21  3  0
 17 22  1  0
 22 21  1  1
 23 17  1  6
 24 13  1  6
 24 23  1  0
 13 25  1  0
 25 26  1  0
 26 27  1  0
 27  8  1  6
 24 27  1  0
 29 30  2  0
 29 32  1  0
 33 17  1  1
 33 34  1  0
 35 36  2  0
 11 36  1  0
 35 38  1  0
 35 39  1  0
  3 39  2  0
 37 40  2  0
 36 40  1  0
 38 41  2  0
 37 41  1  0
 38 42  1  0
 28 43  1  0
 30 43  1  0
 25 43  1  6
 29 44  1  0
 28 44  2  0
 30 45  1  0
 31 45  2  0
 32 46  2  0
 31 46  1  0
 32 47  1  0
  2 48  1  6
 26 49  1  1
 34 50  1  0
 34 51  2  0
M  END
$$$$
