
     RDKit          3D

 25 28  0  0  0  0  0  0  0  0999 V2000
  -15.1215  -16.8491   -0.7279 C   0  0  0  0  0  0  0  0  0  0  0  0
  -21.3740  -23.8905    1.3135 C   0  0  0  0  0  0  0  0  0  0  0  0
  -12.9710  -19.7410    0.4011 C   0  0  0  0  0  0  0  0  0  0  0  0
  -19.8394  -22.7068    2.3648 C   0  0  0  0  0  0  0  0  0  0  0  0
  -20.7209  -22.9647    4.6076 C   0  0  0  0  0  0  0  0  0  0  0  0
  -19.7246  -22.2162    5.0992 C   0  0  0  0  0  0  0  0  0  0  0  0
  -18.7550  -21.7122    4.0882 C   0  0  0  0  0  0  0  0  0  0  0  0
  -14.1239  -19.0055   -0.1448 C   0  0  0  0  0  0  0  0  0  0  0  0
  -14.0607  -17.6009   -0.2191 C   0  0  0  0  0  0  0  0  0  0  0  0
  -20.2026  -23.1354    1.1005 C   0  0  0  0  0  0  0  0  0  0  0  0
  -19.5509  -22.8742   -0.1671 C   0  0  0  0  0  0  0  0  0  0  0  0
  -18.1883  -22.7222   -0.0972 N   0  0  0  0  0  0  0  0  0  0  0  0
  -20.1844  -22.7900   -1.2145 O   0  0  0  0  0  0  0  0  0  0  0  0
  -17.3823  -22.4503   -1.2589 C   0  0  0  0  0  0  0  0  0  0  0  0
  -16.8505  -21.0708   -1.1527 C   0  0  0  0  0  0  0  0  0  0  0  0
  -15.6006  -20.9355   -0.6282 O   0  0  0  0  0  0  0  0  0  0  0  0
  -15.3015  -19.6028   -0.6039 C   0  0  0  0  0  0  0  0  0  0  0  0
  -16.3775  -18.8779   -1.1181 C   0  0  0  0  0  0  0  0  0  0  0  0
  -17.3676  -19.8330   -1.4689 C   0  0  0  0  0  0  0  0  0  0  0  0
  -16.2875  -17.4754   -1.1818 C   0  0  0  0  0  0  0  0  0  0  0  0
  -11.7886  -19.1293    0.2398 O   0  0  0  0  0  0  0  0  0  0  0  0
  -13.0414  -20.8186    0.9675 O   0  0  0  0  0  0  0  0  0  0  0  0
  -21.7386  -23.9519    2.5951 N   0  0  0  0  0  0  0  0  0  0  0  0
  -20.8001  -23.2234    3.2430 N   0  0  0  0  0  0  0  0  0  0  0  0
  -18.7932  -21.9329    2.8071 N   0  0  0  0  0  0  0  0  0  0  0  0
  5  6  4  0
  6  7  4  0
  3  8  1  0
  1  9  4  0
  8  9  4  0
  2 10  4  0
  4 10  4  0
 10 11  1  0
 11 12  1  0
 11 13  2  0
 12 14  1  0
 14 15  1  0
 15 16  4  0
 16 17  4  0
  8 17  4  0
 17 18  4  0
 15 19  4  0
 18 19  4  0
 18 20  4  0
  1 20  4  0
  3 21  1  0
  3 22  2  0
  2 23  4  0
 23 24  4  0
  4 24  4  0
  5 24  4  0
  4 25  4  0
  7 25  4  0
M  END
