7RZL_NPO_A_301
     RDKit          3D

 10 10  0  0  0  0  0  0  0  0999 V2000
   21.9390   12.7805   51.9312 C   0  0  0  0  0  0  0  0  0  0  0  0
   20.8849   11.8889   52.0108 C   0  0  0  0  0  0  0  0  0  0  0  0
   20.4224   11.2118   50.8875 C   0  0  0  0  0  0  0  0  0  0  0  0
   21.0519   11.4585   49.6833 C   0  0  0  0  0  0  0  0  0  0  0  0
   22.1075   12.3397   49.5563 C   0  0  0  0  0  0  0  0  0  0  0  0
   22.5510   13.0048   50.6970 C   0  0  0  0  0  0  0  0  0  0  0  0
   20.6325   10.8076   48.5153 O   0  0  0  0  0  0  0  0  0  0  0  0
   22.3898   13.4625   53.1150 N   0  0  0  0  0  0  0  0  0  0  0  0
   23.4783   14.3241   53.0682 O   0  0  0  0  0  0  0  0  0  0  0  0
   21.7673   13.2503   54.1795 O   0  0  0  0  0  0  0  0  0  0  0  0
  1  2  2  0
  2  3  1  0
  3  4  2  0
  4  5  1  0
  1  6  1  0
  5  6  2  0
  4  7  1  0
  1  8  1  0
  8  9  1  0
  8 10  2  0
M  CHG  2   8   1   9  -1
M  END
$$$$
