7UAW_MF6_B_201
     RDKit          3D

 35 39  0  0  0  0  0  0  0  0999 V2000
  -25.9258   18.5628   -5.1433 C   0  0  2  0  0  0  0  0  0  0  0  0
  -24.5511   14.4043   -8.1112 C   0  0  1  0  0  0  0  0  0  0  0  0
  -26.0616   13.9556  -10.0669 C   0  0  0  0  0  0  0  0  0  0  0  0
  -24.2439    8.8923   -4.6689 C   0  0  0  0  0  0  0  0  0  0  0  0
  -26.4900    9.4715   -4.2329 C   0  0  0  0  0  0  0  0  0  0  0  0
  -25.2215   10.9352   -5.5321 C   0  0  0  0  0  0  0  0  0  0  0  0
  -24.1427   10.0621   -5.3917 C   0  0  0  0  0  0  0  0  0  0  0  0
  -23.5350   11.7591   -6.5998 C   0  0  0  0  0  0  0  0  0  0  0  0
  -25.6960   13.0761   -6.6271 C   0  0  2  0  0  0  0  0  0  0  0  0
  -24.9610   14.3944   -6.6272 C   0  0  2  0  0  0  0  0  0  0  0  0
  -25.8078   16.2259   -5.4533 C   0  0  2  0  0  0  0  0  0  0  0  0
  -27.2637   17.9408   -5.3605 C   0  0  1  0  0  0  0  0  0  0  0  0
  -24.9951   17.4757   -5.6725 C   0  0  2  0  0  0  0  0  0  0  0  0
  -25.9607   14.0541   -8.6098 C   0  0  1  0  0  0  0  0  0  0  0  0
  -27.8505   18.2321   -6.7173 C   0  0  0  0  0  0  0  0  0  0  0  0
  -23.1370    8.0129   -4.5344 N   0  0  0  0  0  0  0  0  0  0  0  0
  -25.4530    8.6314   -4.0974 N   0  0  0  0  0  0  0  0  0  0  0  0
  -26.4122   10.6278   -4.9397 N   0  0  0  0  0  0  0  0  0  0  0  0
  -23.1189   10.5938   -6.0583 N   0  0  0  0  0  0  0  0  0  0  0  0
  -24.8114   11.9730   -6.2842 N   0  0  0  0  0  0  0  0  0  0  0  0
  -25.9129   15.4023   -6.5377 O   0  0  0  0  0  0  0  0  0  0  0  0
  -27.0892   16.6132   -5.0765 O   0  0  0  0  0  0  0  0  0  0  0  0
  -25.6614   18.7189   -3.7854 O   0  0  0  0  0  0  0  0  0  0  0  0
  -23.8090   17.4135   -4.9654 O   0  0  0  0  0  0  0  0  0  0  0  0
  -24.1232   15.6290   -8.5389 O   0  0  0  0  0  0  0  0  0  0  0  0
  -27.4080   14.0359  -10.4325 O   0  0  0  0  0  0  0  0  0  0  0  0
  -27.4984   15.5384  -12.7071 O   0  0  0  0  0  0  0  0  0  0  0  0
  -27.0079   16.8012  -10.2666 O   0  0  0  0  0  0  0  0  0  0  0  0
  -28.7049   18.9507   -9.7062 O   0  0  0  0  0  0  0  0  0  0  0  0
  -26.9940   17.9459   -7.7601 O   0  0  0  0  0  0  0  0  0  0  0  0
  -28.9889   16.5774   -8.6356 O   0  0  0  0  0  0  0  0  0  0  0  0
  -29.3096   15.7714  -10.8739 O   0  0  0  0  0  0  0  0  0  0  0  0
  -26.1729   12.8721   -7.9152 O   0  0  0  0  0  0  0  0  0  0  0  0
  -27.8173   15.5450  -11.0432 P   0  0  2  0  0  5  0  0  0  0  0  0
  -27.9444   17.5754   -9.1140 P   0  0  2  0  0  5  0  0  0  0  0  0
  6  7  1  0
  4  7  2  0
  2 10  1  0
  9 10  1  0
  1 12  1  0
 11 13  1  0
  1 13  1  0
  2 14  1  0
 14  3  1  0
 12 15  1  0
  4 16  1  0
  4 17  1  0
  5 17  2  0
  6 18  2  0
  5 18  1  0
  8 19  2  0
  7 19  1  0
  9 20  1  6
  8 20  1  0
  6 20  1  0
 10 21  1  6
 11 21  1  6
 11 22  1  0
 12 22  1  6
  1 23  1  1
 13 24  1  1
  2 25  1  6
  3 26  1  6
 15 30  1  1
 14 33  1  1
  9 33  1  0
 26 34  1  0
 32 34  2  0
 28 34  1  0
 34 27  1  6
 28 35  1  0
 30 35  1  0
 31 35  2  0
 35 29  1  6
M  END
$$$$
