7PT3_3KK_A_702
     RDKit          3D

 54 56  0  0  0  0  0  0  0  0999 V2000
  -15.1321   -7.5779   26.9313 C   0  0  0  0  0  0  0  0  0  0  0  0
  -14.3177   -8.8957   27.0308 C   0  0  2  0  0  0  0  0  0  0  0  0
  -14.9547   -9.9088   26.1061 C   0  0  0  0  0  0  0  0  0  0  0  0
  -14.4775   -9.3107   28.3333 O   0  0  0  0  0  0  0  0  0  0  0  0
  -12.9299   -8.5500   26.6826 C   0  0  0  0  0  0  0  0  0  0  0  0
  -12.1306   -8.5392   27.6467 O   0  0  0  0  0  0  0  0  0  0  0  0
  -12.2667   -8.1567   25.1100 S   0  0  0  0  0  0  0  0  0  0  0  0
  -12.5902   -6.5399   24.4545 C   0  0  0  0  0  0  0  0  0  0  0  0
  -11.6771   -5.4425   24.8940 C   0  0  0  0  0  0  0  0  0  0  0  0
  -10.8954   -5.6714   26.0448 N   0  0  0  0  0  0  0  0  0  0  0  0
  -10.8410   -4.5762   27.0093 C   0  0  0  0  0  0  0  0  0  0  0  0
  -11.8809   -4.3483   27.6788 O   0  0  0  0  0  0  0  0  0  0  0  0
   -9.5882   -3.8006   27.1521 C   0  0  0  0  0  0  0  0  0  0  0  0
   -9.6803   -2.7141   28.1599 C   0  0  0  0  0  0  0  0  0  0  0  0
   -8.4782   -2.0042   28.4461 N   0  0  0  0  0  0  0  0  0  0  0  0
   -8.5051   -0.7014   29.0296 C   0  0  0  0  0  0  0  0  0  0  0  0
   -9.1689   -0.6147   30.1198 O   0  0  0  0  0  0  0  0  0  0  0  0
   -7.8460    0.4759   28.4695 C   0  0  2  0  0  0  0  0  0  0  0  0
   -7.1115    0.1698   27.3036 O   0  0  0  0  0  0  0  0  0  0  0  0
   -6.9567    1.2243   29.4281 C   0  0  1  0  0  0  0  0  0  0  0  0
   -7.0314    0.5793   30.8032 C   0  0  0  0  0  0  0  0  0  0  0  0
   -5.5287    1.3196   29.0123 C   0  0  0  0  0  0  0  0  0  0  0  0
   -7.5033    2.6543   29.5518 C   0  0  0  0  0  0  0  0  0  0  0  0
   -6.6939    3.4694   28.7990 O   0  0  0  0  0  0  0  0  0  0  0  0
   -7.1463    5.0951   28.8691 P   0  0  2  0  0  5  0  0  0  0  0  0
   -7.4420    5.6001   30.4514 O   0  0  0  0  0  0  0  0  0  0  0  0
   -8.4743    5.1970   28.1259 O   0  0  0  0  0  0  0  0  0  0  0  0
   -6.0455    6.0909   28.0803 O   0  0  0  0  0  0  0  0  0  0  0  0
   -4.4667    5.6429   28.4588 P   0  0  2  0  0  5  0  0  0  0  0  0
   -4.2810    4.1742   28.1452 O   0  0  0  0  0  0  0  0  0  0  0  0
   -4.1639    5.8556   30.1192 O   0  0  0  0  0  0  0  0  0  0  0  0
   -3.3031    6.5308   27.6301 O   0  0  0  0  0  0  0  0  0  0  0  0
   -3.8893    7.2545   26.6088 C   0  0  0  0  0  0  0  0  0  0  0  0
   -2.8591    7.9304   25.7247 C   0  0  1  0  0  0  0  0  0  0  0  0
   -1.6769    7.1757   25.8072 O   0  0  0  0  0  0  0  0  0  0  0  0
   -3.2560    8.0213   24.2995 C   0  0  1  0  0  0  0  0  0  0  0  0
   -3.4666    9.2613   23.7755 O   0  0  0  0  0  0  0  0  0  0  0  0
   -4.5784    9.4907   22.6041 P   0  0  1  0  0  5  0  0  0  0  0  0
   -5.7943    8.6315   22.9713 O   0  0  0  0  0  0  0  0  0  0  0  0
   -5.1757   11.0337   22.3945 O   0  0  0  0  0  0  0  0  0  0  0  0
   -4.0951    8.8905   21.0744 O   0  0  0  0  0  0  0  0  0  0  0  0
   -2.1860    7.2196   23.6122 C   0  0  1  0  0  0  0  0  0  0  0  0
   -1.8819    7.6513   22.3379 O   0  0  0  0  0  0  0  0  0  0  0  0
   -1.0426    7.2913   24.5714 C   0  0  2  0  0  0  0  0  0  0  0  0
   -0.1118    6.1920   24.4050 N   0  0  0  0  0  0  0  0  0  0  0  0
   -0.0422    5.0234   25.0709 C   0  0  0  0  0  0  0  0  0  0  0  0
    0.9849    4.2835   24.5886 N   0  0  0  0  0  0  0  0  0  0  0  0
    1.5846    4.9683   23.6096 C   0  0  0  0  0  0  0  0  0  0  0  0
    0.8916    6.1685   23.4972 C   0  0  0  0  0  0  0  0  0  0  0  0
    1.3317    7.0234   22.5582 N   0  0  0  0  0  0  0  0  0  0  0  0
    2.3876    6.7533   21.7558 C   0  0  0  0  0  0  0  0  0  0  0  0
    3.0456    5.5761   21.8862 N   0  0  0  0  0  0  0  0  0  0  0  0
    2.6634    4.6698   22.8039 C   0  0  0  0  0  0  0  0  0  0  0  0
    3.3867    3.4419   22.9044 N   0  0  0  0  0  0  0  0  0  0  0  0
  1  2  1  1
  3  2  1  6
  2  4  1  1
  2  5  1  0
  5  6  2  0
  5  7  1  0
  8  7  1  6
  8  9  1  0
  9 10  1  6
 10 11  1  0
 11 12  2  0
 13 11  1  1
 13 14  1  0
 14 15  1  6
 15 16  1  0
 16 17  2  0
 16 18  1  0
 18 19  1  6
 18 20  1  0
 20 21  1  1
 22 20  1  6
 20 23  1  0
 23 24  1  1
 25 24  1  0
 25 26  1  1
 25 27  2  0
 25 28  1  0
 29 28  1  0
 29 30  2  0
 29 31  1  1
 29 32  1  0
 33 32  1  6
 34 33  1  0
 34 35  1  6
 34 36  1  0
 36 37  1  6
 37 38  1  0
 38 39  2  0
 38 40  1  6
 38 41  1  0
 36 42  1  0
 42 43  1  6
 42 44  1  0
 35 44  1  0
 44 45  1  6
 45 46  1  0
 46 47  2  0
 47 48  1  0
 45 49  1  0
 48 49  2  0
 49 50  1  0
 50 51  2  0
 51 52  1  0
 48 53  1  0
 52 53  2  0
 53 54  1  0
M  END
$$$$
