7XJN_NSD_A_401
     RDKit          3D

 26 25  0  0  0  0  0  0  0  0999 V2000
  -19.8445    1.8809   -3.3956 C   0  0  1  0  0  0  0  0  0  0  0  0
  -19.3999    2.5663   -4.6061 N   0  0  0  0  0  0  0  0  0  0  0  0
  -19.5373    2.7155   -2.1440 C   0  0  2  0  0  0  0  0  0  0  0  0
  -18.7035    1.0752   -0.4700 N   0  0  0  0  0  0  0  0  0  0  0  0
  -18.3283    2.1895   -1.3537 C   0  0  2  0  0  0  0  0  0  0  0  0
  -15.9200    1.1176    2.6066 N   0  0  0  0  0  0  0  0  0  0  0  0
  -17.8626    1.0328    0.7334 C   0  0  1  0  0  0  0  0  0  0  0  0
  -16.7226    0.0311    0.5332 C   0  0  1  0  0  0  0  0  0  0  0  0
  -15.8727   -0.1032    1.8049 C   0  0  1  0  0  0  0  0  0  0  0  0
  -20.9371    1.6833   -3.4581 H   0  0  0  0  0  0  0  0  0  0  0  0
  -19.3253    0.8998   -3.3139 H   0  0  0  0  0  0  0  0  0  0  0  0
  -19.3264    3.5885   -4.3962 H   0  0  0  0  0  0  0  0  0  0  0  0
  -18.4315    2.2361   -4.8216 H   0  0  0  0  0  0  0  0  0  0  0  0
  -20.4368    2.7722   -1.4952 H   0  0  0  0  0  0  0  0  0  0  0  0
  -19.3077    3.7534   -2.4693 H   0  0  0  0  0  0  0  0  0  0  0  0
  -18.5446    0.1844   -0.9977 H   0  0  0  0  0  0  0  0  0  0  0  0
  -17.8676    3.0239   -0.7774 H   0  0  0  0  0  0  0  0  0  0  0  0
  -17.5584    1.8425   -2.0789 H   0  0  0  0  0  0  0  0  0  0  0  0
  -16.2851    1.8977    2.0129 H   0  0  0  0  0  0  0  0  0  0  0  0
  -16.5915    0.9775    3.3964 H   0  0  0  0  0  0  0  0  0  0  0  0
  -17.4388    2.0422    0.9390 H   0  0  0  0  0  0  0  0  0  0  0  0
  -18.4627    0.7135    1.6130 H   0  0  0  0  0  0  0  0  0  0  0  0
  -17.1522   -0.9600    0.2686 H   0  0  0  0  0  0  0  0  0  0  0  0
  -16.0781    0.3717   -0.3066 H   0  0  0  0  0  0  0  0  0  0  0  0
  -14.8160   -0.3138    1.5306 H   0  0  0  0  0  0  0  0  0  0  0  0
  -16.2456   -0.9524    2.4181 H   0  0  0  0  0  0  0  0  0  0  0  0
  1  2  1  0
  1  3  1  0
  4  5  1  0
  3  5  1  0
  4  7  1  0
  7  8  1  0
  6  9  1  0
  8  9  1  0
  1 10  1  6
  1 11  1  0
  2 12  1  0
  2 13  1  0
  3 14  1  1
  3 15  1  0
  4 16  1  0
  5 17  1  1
  5 18  1  0
  6 19  1  0
  6 20  1  0
  7 21  1  1
  7 22  1  0
  8 23  1  6
  8 24  1  0
  9 25  1  6
  9 26  1  0
M  END
