1MEH_MOA_A_600
     RDKit          3D

 23 24  0  0  0  0  0  0  0  0999 V2000
   54.5105   61.4741   17.7167 C   0  0  0  0  0  0  0  0  0  0  0  0
   51.9761   66.0714   20.0605 C   0  0  0  0  0  0  0  0  0  0  0  0
   51.9137   67.1859   20.8225 C   0  0  0  0  0  0  0  0  0  0  0  0
   52.6276   68.3639   20.2581 C   0  0  0  0  0  0  0  0  0  0  0  0
   53.1981   69.3300   21.2183 C   0  0  0  0  0  0  0  0  0  0  0  0
   53.6964   70.5864   20.6883 C   0  0  0  0  0  0  0  0  0  0  0  0
   49.9607   62.0567   16.5475 C   0  0  0  0  0  0  0  0  0  0  0  0
   49.3940   65.2417   18.2097 C   0  0  0  0  0  0  0  0  0  0  0  0
   51.2276   67.1810   22.1319 C   0  0  0  0  0  0  0  0  0  0  0  0
   52.7915   60.8937   16.3007 C   0  0  0  0  0  0  0  0  0  0  0  0
   52.3324   61.8641   17.2923 C   0  0  0  0  0  0  0  0  0  0  0  0
   51.0740   62.4398   17.4732 C   0  0  0  0  0  0  0  0  0  0  0  0
   50.8833   63.3496   18.5023 C   0  0  0  0  0  0  0  0  0  0  0  0
   51.8917   63.7173   19.3667 C   0  0  0  0  0  0  0  0  0  0  0  0
   53.1339   63.1502   19.1896 C   0  0  0  0  0  0  0  0  0  0  0  0
   53.3392   62.2362   18.1616 C   0  0  0  0  0  0  0  0  0  0  0  0
   51.6032   64.7083   20.4504 C   0  0  0  0  0  0  0  0  0  0  0  0
   55.6700   61.5211   18.2526 O   0  0  0  0  0  0  0  0  0  0  0  0
   54.1524   60.6994   16.6247 O   0  0  0  0  0  0  0  0  0  0  0  0
   49.5821   63.8767   18.6066 O   0  0  0  0  0  0  0  0  0  0  0  0
   54.1565   63.5069   20.0466 O   0  0  0  0  0  0  0  0  0  0  0  0
   54.5076   71.3504   21.5822 O   0  0  0  0  0  0  0  0  0  0  0  0
   53.5321   71.1064   19.5820 O   0  0  0  0  0  0  0  0  0  0  0  0
  2  3  2  0
  3  4  1  0
  4  5  1  0
  5  6  1  0
  3  9  1  0
 10 11  1  0
  7 12  1  0
 11 12  1  0
 12 13  2  0
 13 14  1  0
 14 15  2  0
  1 16  1  0
 11 16  2  0
 15 16  1  0
  2 17  1  0
 14 17  1  0
  1 18  2  0
  1 19  1  0
 10 19  1  0
  8 20  1  0
 13 20  1  0
 15 21  1  0
  6 22  1  0
  6 23  2  0
M  END
$$$$
