1MEH_MOA_A_600
     RDKit          3D

 23 24  0  0  0  0  0  0  0  0999 V2000
   81.2261   36.6751   23.6087 C   0  0  0  0  0  0  0  0  0  0  0  0
   84.4104   36.5776   19.0616 C   0  0  0  0  0  0  0  0  0  0  0  0
   85.5156   36.4314   18.2974 C   0  0  0  0  0  0  0  0  0  0  0  0
   85.7811   37.5631   17.3678 C   0  0  0  0  0  0  0  0  0  0  0  0
   86.8752   38.4878   17.7266 C   0  0  0  0  0  0  0  0  0  0  0  0
   87.2961   39.4490   16.7232 C   0  0  0  0  0  0  0  0  0  0  0  0
   78.5941   37.5424   19.7712 C   0  0  0  0  0  0  0  0  0  0  0  0
   81.0763   36.9077   17.2473 C   0  0  0  0  0  0  0  0  0  0  0  0
   86.3396   35.2061   18.3691 C   0  0  0  0  0  0  0  0  0  0  0  0
   79.1115   36.8542   22.7184 C   0  0  0  0  0  0  0  0  0  0  0  0
   80.1216   37.1110   21.6940 C   0  0  0  0  0  0  0  0  0  0  0  0
   79.9736   37.4276   20.3429 C   0  0  0  0  0  0  0  0  0  0  0  0
   81.1027   37.6286   19.5632 C   0  0  0  0  0  0  0  0  0  0  0  0
   82.3818   37.5290   20.0665 C   0  0  0  0  0  0  0  0  0  0  0  0
   82.5296   37.2167   21.3994 C   0  0  0  0  0  0  0  0  0  0  0  0
   81.4058   37.0126   22.1929 C   0  0  0  0  0  0  0  0  0  0  0  0
   83.5475   37.7588   19.1565 C   0  0  0  0  0  0  0  0  0  0  0  0
   82.1706   36.4904   24.4502 O   0  0  0  0  0  0  0  0  0  0  0  0
   79.8697   36.5903   23.8803 O   0  0  0  0  0  0  0  0  0  0  0  0
   80.8544   37.9435   18.2137 O   0  0  0  0  0  0  0  0  0  0  0  0
   83.8042   37.1128   21.9210 O   0  0  0  0  0  0  0  0  0  0  0  0
   88.0575   40.5538   17.2137 O   0  0  0  0  0  0  0  0  0  0  0  0
   87.1016   39.4674   15.5054 O   0  0  0  0  0  0  0  0  0  0  0  0
  2  3  2  0
  3  4  1  0
  4  5  1  0
  5  6  1  0
  3  9  1  0
 10 11  1  0
  7 12  1  0
 11 12  1  0
 12 13  2  0
 13 14  1  0
 14 15  2  0
  1 16  1  0
 11 16  2  0
 15 16  1  0
  2 17  1  0
 14 17  1  0
  1 18  2  0
  1 19  1  0
 10 19  1  0
  8 20  1  0
 13 20  1  0
 15 21  1  0
  6 22  1  0
  6 23  2  0
M  END
$$$$
