1MEH_MOA_A_600
     RDKit          3D

 23 24  0  0  0  0  0  0  0  0999 V2000
   60.5115   56.1216   20.2048 C   0  0  0  0  0  0  0  0  0  0  0  0
   58.6804   59.0121   15.3999 C   0  0  0  0  0  0  0  0  0  0  0  0
   58.7307   59.9781   14.4559 C   0  0  0  0  0  0  0  0  0  0  0  0
   58.4981   61.3569   14.9663 C   0  0  0  0  0  0  0  0  0  0  0  0
   59.5111   61.9158   15.8841 C   0  0  0  0  0  0  0  0  0  0  0  0
   59.3898   63.3175   16.2423 C   0  0  0  0  0  0  0  0  0  0  0  0
   56.7550   54.4654   17.8484 C   0  0  0  0  0  0  0  0  0  0  0  0
   55.4670   57.8451   16.6685 C   0  0  0  0  0  0  0  0  0  0  0  0
   58.9480   59.6466   13.0317 C   0  0  0  0  0  0  0  0  0  0  0  0
   59.0767   54.3566   19.8546 C   0  0  0  0  0  0  0  0  0  0  0  0
   58.7153   55.4870   19.0018 C   0  0  0  0  0  0  0  0  0  0  0  0
   57.6844   55.6187   18.0704 C   0  0  0  0  0  0  0  0  0  0  0  0
   57.5440   56.8099   17.3743 C   0  0  0  0  0  0  0  0  0  0  0  0
   58.3861   57.8847   17.5615 C   0  0  0  0  0  0  0  0  0  0  0  0
   59.4037   57.7564   18.4802 C   0  0  0  0  0  0  0  0  0  0  0  0
   59.5561   56.5673   19.1853 C   0  0  0  0  0  0  0  0  0  0  0  0
   58.1673   59.1343   16.7676 C   0  0  0  0  0  0  0  0  0  0  0  0
   61.4726   56.8221   20.6735 O   0  0  0  0  0  0  0  0  0  0  0  0
   60.2001   54.8222   20.5728 O   0  0  0  0  0  0  0  0  0  0  0  0
   56.4768   56.8492   16.4571 O   0  0  0  0  0  0  0  0  0  0  0  0
   60.2573   58.8234   18.6809 O   0  0  0  0  0  0  0  0  0  0  0  0
   60.5681   63.9160   16.7847 O   0  0  0  0  0  0  0  0  0  0  0  0
   58.4265   64.0827   16.1538 O   0  0  0  0  0  0  0  0  0  0  0  0
  2  3  2  0
  3  4  1  0
  4  5  1  0
  5  6  1  0
  3  9  1  0
 10 11  1  0
  7 12  1  0
 11 12  1  0
 12 13  2  0
 13 14  1  0
 14 15  2  0
  1 16  1  0
 11 16  2  0
 15 16  1  0
  2 17  1  0
 14 17  1  0
  1 18  2  0
  1 19  1  0
 10 19  1  0
  8 20  1  0
 13 20  1  0
 15 21  1  0
  6 22  1  0
  6 23  2  0
M  END
$$$$
