1T9B_1CS_B_1695
     RDKit          3D

 35 36  0  0  0  0  0  0  0  0999 V2000
   -2.3046   -2.7852    2.2159 C   0  0  0  0  0  0  0  0  0  0  0  0
   -1.3063   -2.6903    3.2253 O   0  0  0  0  0  0  0  0  0  0  0  0
   -0.0466   -2.1336    2.9903 C   0  0  0  0  0  0  0  0  0  0  0  0
    0.8561   -2.0745    4.0010 N   0  0  0  0  0  0  0  0  0  0  0  0
    2.0812   -1.5279    3.7918 C   0  0  0  0  0  0  0  0  0  0  0  0
    3.0851   -1.4987    4.8954 C   0  0  0  0  0  0  0  0  0  0  0  0
    2.4108   -1.0608    2.5601 N   0  0  0  0  0  0  0  0  0  0  0  0
    1.5141   -1.1171    1.5417 C   0  0  0  0  0  0  0  0  0  0  0  0
    1.8778   -0.6056    0.2504 N   0  0  0  0  0  0  0  0  0  0  0  0
    1.0281   -0.6408   -0.9074 C   0  0  0  0  0  0  0  0  0  0  0  0
   -0.1004   -1.2015   -0.8594 O   0  0  0  0  0  0  0  0  0  0  0  0
    1.4708   -0.0362   -2.1269 N   0  0  0  0  0  0  0  0  0  0  0  0
    0.4672    0.0109   -3.5382 S   0  0  0  0  0  6  0  0  0  0  0  0
    1.1519    0.8040   -4.6154 O   0  0  0  0  0  0  0  0  0  0  0  0
    0.2565   -1.3923   -4.0347 O   0  0  0  0  0  0  0  0  0  0  0  0
   -1.0766    0.7787   -3.1489 C   0  0  0  0  0  0  0  0  0  0  0  0
   -2.2713    0.0638   -3.3335 C   0  0  0  0  0  0  0  0  0  0  0  0
   -3.5010    0.6474   -3.0185 C   0  0  0  0  0  0  0  0  0  0  0  0
   -3.5499    1.9488   -2.5164 C   0  0  0  0  0  0  0  0  0  0  0  0
   -2.3688    2.6697   -2.3279 C   0  0  0  0  0  0  0  0  0  0  0  0
   -1.1308    2.0941   -2.6402 C   0  0  0  0  0  0  0  0  0  0  0  0
    0.2851   -1.6527    1.7632 N   0  0  0  0  0  0  0  0  0  0  0  0
    0.3232    3.0512   -2.3781 Cl  0  0  0  0  0  0  0  0  0  0  0  0
   -3.2115   -3.2600    2.6433 H   0  0  0  0  0  0  0  0  0  0  0  0
   -1.9356   -3.4076    1.3732 H   0  0  0  0  0  0  0  0  0  0  0  0
   -2.5692   -1.7719    1.8459 H   0  0  0  0  0  0  0  0  0  0  0  0
    2.5730   -1.4102    5.8768 H   0  0  0  0  0  0  0  0  0  0  0  0
    3.7664   -0.6307    4.7705 H   0  0  0  0  0  0  0  0  0  0  0  0
    3.6804   -2.4352    4.8778 H   0  0  0  0  0  0  0  0  0  0  0  0
    2.8229   -0.1714    0.1500 H   0  0  0  0  0  0  0  0  0  0  0  0
    2.4117    0.4143   -2.1693 H   0  0  0  0  0  0  0  0  0  0  0  0
   -2.2555   -0.9473   -3.7185 H   0  0  0  0  0  0  0  0  0  0  0  0
   -4.4172    0.0894   -3.1630 H   0  0  0  0  0  0  0  0  0  0  0  0
   -4.5035    2.3990   -2.2726 H   0  0  0  0  0  0  0  0  0  0  0  0
   -2.4167    3.6783   -1.9372 H   0  0  0  0  0  0  0  0  0  0  0  0
  1  2  1  0
  2  3  1  0
  3  4  2  0
  4  5  1  0
  5  6  1  0
  5  7  2  0
  7  8  1  0
  8  9  1  0
  9 10  1  0
 10 11  2  0
 10 12  1  0
 12 13  1  0
 13 14  2  0
 13 15  2  0
 13 16  1  0
 16 17  2  0
 17 18  1  0
 18 19  2  0
 19 20  1  0
 16 21  1  0
 20 21  2  0
  3 22  1  0
  8 22  2  0
 21 23  1  0
  1 24  1  0
  1 25  1  0
  1 26  1  0
  6 27  1  0
  6 28  1  0
  6 29  1  0
  9 30  1  0
 12 31  1  0
 17 32  1  0
 18 33  1  0
 19 34  1  0
 20 35  1  0
M  END
