7DQL_4CL_B_301
     RDKit          3D

  9  9  0  0  0  0  0  0  0  0999 V2000
    9.7707    7.3611   11.7973 Cl  0  0  0  0  0  0  0  0  0  0  0  0
    8.2274    6.5846   12.0097 C   0  0  0  0  0  0  0  0  0  0  0  0
    8.0869    5.2559   11.6655 C   0  0  0  0  0  0  0  0  0  0  0  0
    6.8621    4.6386   11.8480 C   0  0  0  0  0  0  0  0  0  0  0  0
    5.7893    5.3451   12.3826 C   0  0  0  0  0  0  0  0  0  0  0  0
    4.5833    4.7496   12.5821 O   0  0  0  0  0  0  0  0  0  0  0  0
    5.9514    6.6926   12.7247 C   0  0  0  0  0  0  0  0  0  0  0  0
    7.1746    7.3163   12.5274 C   0  0  0  0  0  0  0  0  0  0  0  0
    4.9032    7.3676   13.2655 O   0  0  0  0  0  0  0  0  0  0  0  0
  1  2  1  0
  2  3  2  0
  3  4  1  0
  4  5  2  0
  5  6  1  0
  5  7  1  0
  2  8  1  0
  7  8  2  0
  7  9  1  0
M  END
