8BN6_R53_A_303
     RDKit          3D

 29 32  0  0  0  0  0  0  0  0999 V2000
   -0.2413   22.0694    3.5219 C   0  0  0  0  0  0  0  0  0  0  0  0
   -6.9755   26.5865    1.4980 C   0  0  0  0  0  0  0  0  0  0  0  0
   -1.7232   23.1005    1.7986 C   0  0  0  0  0  0  0  0  0  0  0  0
   -3.4526   24.2103    0.8757 C   0  0  0  0  0  0  0  0  0  0  0  0
   -3.5381   23.0344   -2.0180 C   0  0  0  0  0  0  0  0  0  0  0  0
   -4.2081   24.6589   -0.1983 C   0  0  0  0  0  0  0  0  0  0  0  0
   -3.8519   25.4178   -2.5861 C   0  0  0  0  0  0  0  0  0  0  0  0
   -4.2075   24.6928   -3.8955 C   0  0  0  0  0  0  0  0  0  0  0  0
   -2.5572   23.2531   -3.1819 C   0  0  0  0  0  0  0  0  0  0  0  0
   -5.3321   25.4186    0.0245 C   0  0  0  0  0  0  0  0  0  0  0  0
   -5.7835   25.7827    1.2820 C   0  0  0  0  0  0  0  0  0  0  0  0
    1.3246   20.8796    5.0967 N   0  0  0  0  0  0  0  0  0  0  0  0
   -0.5513   22.3349    2.1538 N   0  0  0  0  0  0  0  0  0  0  0  0
    0.7191   21.0386    3.8970 C   0  0  0  0  0  0  0  0  0  0  0  0
   -2.3642   23.4855    0.9262 N   0  0  0  0  0  0  0  0  0  0  0  0
    2.9985   19.2695    6.1174 C   0  0  0  0  0  0  0  0  0  0  0  0
    2.1457   19.7993    5.0275 C   0  0  0  0  0  0  0  0  0  0  0  0
   -0.8328   22.7645    4.4090 O   0  0  0  0  0  0  0  0  0  0  0  0
   -3.8738   24.3803   -1.5532 N   0  0  0  0  0  0  0  0  0  0  0  0
   -3.2469   23.7765   -4.2484 O   0  0  0  0  0  0  0  0  0  0  0  0
   -7.3336   26.9531    2.7678 O   0  0  0  0  0  0  0  0  0  0  0  0
   -7.6900   26.9543    0.5311 O   0  0  0  0  0  0  0  0  0  0  0  0
   -5.0359   25.3390    2.3505 C   0  0  0  0  0  0  0  0  0  0  0  0
   -3.9172   24.5832    2.1339 C   0  0  0  0  0  0  0  0  0  0  0  0
   -2.7239   23.8420    3.2651 S   0  0  0  0  0  0  0  0  0  0  0  0
    1.1691   20.0435    3.0689 C   0  0  0  0  0  0  0  0  0  0  0  0
    0.6700   19.8253    1.3952 Cl  0  0  0  0  0  0  0  0  0  0  0  0
    2.0665   19.2533    3.7591 C   0  0  0  0  0  0  0  0  0  0  0  0
    2.9160   17.8545    3.1365 Cl  0  0  0  0  0  0  0  0  0  0  0  0
  4  6  1  0
  7  8  1  0
  5  9  1  0
  6 10  2  0
 10 11  1  0
  2 11  1  0
  3 13  1  0
  1 13  1  0
  1 14  1  0
 12 14  1  0
  4 15  1  0
  3 15  2  0
 12 17  1  0
 16 17  1  6
  1 18  2  0
  5 19  1  6
  7 19  1  6
  6 19  1  0
  9 20  1  1
  8 20  1  6
  2 21  1  0
  2 22  2  0
 11 23  2  0
  4 24  2  0
 23 24  1  0
  3 25  1  0
 24 25  1  0
 14 26  2  0
 26 27  1  0
 26 28  1  0
 17 28  2  0
 28 29  1  0
M  END
$$$$
