7OPG_06N_A_501
     RDKit          3D

 19 21  0  0  0  0  0  0  0  0999 V2000
   55.5990    1.2980   55.4950 C   0  0  0  0  0  0  0  0  0  0  0  0
   55.7430   -0.0340   55.2360 C   0  0  0  0  0  0  0  0  0  0  0  0
   55.5850    2.4500   54.5870 C   0  0  0  0  0  0  0  0  0  0  0  0
   55.3710    3.4090   52.3910 C   0  0  0  0  0  0  0  0  0  0  0  0
   55.3740    2.3060   53.2170 C   0  0  0  0  0  0  0  0  0  0  0  0
   55.5780    4.6650   52.9140 C   0  0  0  0  0  0  0  0  0  0  0  0
   55.7790    4.8190   54.2750 C   0  0  0  0  0  0  0  0  0  0  0  0
   55.7920    3.7170   55.0940 C   0  0  0  0  0  0  0  0  0  0  0  0
   55.6930   -0.7940   56.3810 N   0  0  0  0  0  0  0  0  0  0  0  0
   55.5140    0.0690   57.3400 C   0  0  0  0  0  0  0  0  0  0  0  0
   55.4300    1.3420   56.8510 N   0  0  0  0  0  0  0  0  0  0  0  0
   55.3870    0.0480   59.0800 S   0  0  0  0  0  0  0  0  0  0  0  0
   55.1750    1.7800   58.8940 C   0  0  0  0  0  0  0  0  0  0  0  0
   55.2030    2.3530   57.7350 N   0  0  0  0  0  0  0  0  0  0  0  0
   54.9060    2.5420   59.9580 N   0  0  0  0  0  0  0  0  0  0  0  0
   54.7040    3.9720   59.8410 C   0  0  0  0  0  0  0  0  0  0  0  0
   55.2090    4.6940   61.0690 C   0  0  0  0  0  0  0  0  0  0  0  0
   56.7160    4.6200   61.1830 C   0  0  0  0  0  0  0  0  0  0  0  0
   55.5980    5.7860   52.1510 O   0  0  0  0  0  0  0  0  0  0  0  0
  1  2  2  0
  1  3  1  0
  4  5  2  0
  3  5  1  0
  4  6  1  0
  6  7  2  0
  7  8  1  0
  3  8  2  0
  2  9  1  0
  9 10  2  0
  1 11  1  0
 10 11  1  0
 10 12  1  0
 12 13  1  0
 11 14  1  0
 13 14  2  0
 13 15  1  0
 15 16  1  0
 16 17  1  0
 17 18  1  0
  6 19  1  0
M  END
$$$$
7OPG_06N_C_501
     RDKit          3D

 19 21  0  0  0  0  0  0  0  0999 V2000
   60.8050   22.0920  114.0390 C   0  0  0  0  0  0  0  0  0  0  0  0
   60.9240   22.1870  112.6780 C   0  0  0  0  0  0  0  0  0  0  0  0
   60.7900   23.1450  115.0290 C   0  0  0  0  0  0  0  0  0  0  0  0
   61.0070   23.8870  117.3130 C   0  0  0  0  0  0  0  0  0  0  0  0
   60.9680   22.8700  116.3870 C   0  0  0  0  0  0  0  0  0  0  0  0
   60.8540   25.1980  116.9030 C   0  0  0  0  0  0  0  0  0  0  0  0
   60.6760   25.4830  115.5540 C   0  0  0  0  0  0  0  0  0  0  0  0
   60.6600   24.4580  114.6250 C   0  0  0  0  0  0  0  0  0  0  0  0
   60.8780   20.9820  112.0780 N   0  0  0  0  0  0  0  0  0  0  0  0
   60.7490   20.1400  113.0630 C   0  0  0  0  0  0  0  0  0  0  0  0
   60.7000   20.7800  114.2520 N   0  0  0  0  0  0  0  0  0  0  0  0
   60.6230   18.4360  113.2630 S   0  0  0  0  0  0  0  0  0  0  0  0
   60.4550   18.8000  114.9680 C   0  0  0  0  0  0  0  0  0  0  0  0
   60.5460   20.0090  115.3630 N   0  0  0  0  0  0  0  0  0  0  0  0
   60.1020   17.8720  115.8610 N   0  0  0  0  0  0  0  0  0  0  0  0
   59.9180   18.2220  117.2610 C   0  0  0  0  0  0  0  0  0  0  0  0
   60.5840   17.2330  118.1700 C   0  0  0  0  0  0  0  0  0  0  0  0
   61.9980   17.6920  118.5590 C   0  0  0  0  0  0  0  0  0  0  0  0
   60.9380   26.2360  117.8010 O   0  0  0  0  0  0  0  0  0  0  0  0
  1  2  2  0
  1  3  1  0
  4  5  2  0
  3  5  1  0
  4  6  1  0
  6  7  2  0
  7  8  1  0
  3  8  2  0
  2  9  1  0
  9 10  2  0
  1 11  1  0
 10 11  1  0
 10 12  1  0
 12 13  1  0
 11 14  1  0
 13 14  2  0
 13 15  1  0
 15 16  1  0
 16 17  1  0
 17 18  1  0
  6 19  1  0
M  END
$$$$
7OPG_06N_B_501
     RDKit          3D

 19 21  0  0  0  0  0  0  0  0999 V2000
   36.5940   29.4880   81.4820 C   0  0  0  0  0  0  0  0  0  0  0  0
   36.7210   28.8610   82.6970 C   0  0  0  0  0  0  0  0  0  0  0  0
   36.5700   28.9050   80.1430 C   0  0  0  0  0  0  0  0  0  0  0  0
   36.7400   29.1250   77.7490 C   0  0  0  0  0  0  0  0  0  0  0  0
   36.7370   29.6960   79.0130 C   0  0  0  0  0  0  0  0  0  0  0  0
   36.5900   27.7500   77.6120 C   0  0  0  0  0  0  0  0  0  0  0  0
   36.4170   26.9550   78.7390 C   0  0  0  0  0  0  0  0  0  0  0  0
   36.4120   27.5290   79.9920 C   0  0  0  0  0  0  0  0  0  0  0  0
   36.7420   29.7580   83.7280 N   0  0  0  0  0  0  0  0  0  0  0  0
   36.6050   30.9210   83.1690 C   0  0  0  0  0  0  0  0  0  0  0  0
   36.5100   30.8080   81.8110 N   0  0  0  0  0  0  0  0  0  0  0  0
   36.4500   32.5790   83.6480 S   0  0  0  0  0  0  0  0  0  0  0  0
   36.2500   32.9350   81.9360 C   0  0  0  0  0  0  0  0  0  0  0  0
   36.3090   31.9820   81.0860 N   0  0  0  0  0  0  0  0  0  0  0  0
   35.8930   34.1590   81.5250 N   0  0  0  0  0  0  0  0  0  0  0  0
   35.6900   34.4640   80.1190 C   0  0  0  0  0  0  0  0  0  0  0  0
   36.3060   35.7550   79.7870 C   0  0  0  0  0  0  0  0  0  0  0  0
   37.7500   35.5800   79.5290 C   0  0  0  0  0  0  0  0  0  0  0  0
   36.6090   27.1450   76.4010 O   0  0  0  0  0  0  0  0  0  0  0  0
  1  2  2  0
  1  3  1  0
  4  5  2  0
  3  5  1  0
  4  6  1  0
  6  7  2  0
  7  8  1  0
  3  8  2  0
  2  9  1  0
  9 10  2  0
  1 11  1  0
 10 11  1  0
 10 12  1  0
 12 13  1  0
 11 14  1  0
 13 14  2  0
 13 15  1  0
 15 16  1  0
 16 17  1  0
 17 18  1  0
  6 19  1  0
M  END
$$$$
