7O0N_CDP_B_304
     RDKit          3D

 25 26  0  0  0  0  0  0  0  0999 V2000
   14.6809   24.5292   21.7274 O   0  0  0  0  0  0  0  0  0  0  0  0
   14.5921   23.5125   20.6011 P   0  0  1  0  0  0  0  0  0  0  0  0
   15.0552   24.1480   19.3439 O   0  0  0  0  0  0  0  0  0  0  0  0
   15.4576   22.3382   21.0040 O   0  0  0  0  0  0  0  0  0  0  0  0
   13.0435   23.0159   20.5865 O   0  0  0  0  0  0  0  0  0  0  0  0
   11.8268   23.4789   19.6243 P   0  0  2  0  0  0  0  0  0  0  0  0
   12.2287   23.9221   18.2583 O   0  0  0  0  0  0  0  0  0  0  0  0
   11.1014   24.5479   20.3749 O   0  0  0  0  0  0  0  0  0  0  0  0
   10.8296   22.1783   19.4112 O   0  0  0  0  0  0  0  0  0  0  0  0
   11.3228   20.9033   19.7050 C   0  0  0  0  0  0  0  0  0  0  0  0
   10.3489   19.9481   19.3833 C   0  0  1  0  0  0  0  0  0  0  0  0
   10.4623   18.8015   20.3374 O   0  0  0  0  0  0  0  0  0  0  0  0
    8.8522   20.4732   19.5947 C   0  0  1  0  0  0  0  0  0  0  0  0
    8.0329   19.9401   18.4462 O   0  0  0  0  0  0  0  0  0  0  0  0
    8.4863   20.0214   20.7338 C   0  0  1  0  0  0  0  0  0  0  0  0
    7.0331   19.7578   20.8472 O   0  0  0  0  0  0  0  0  0  0  0  0
    9.2430   18.5685   20.7705 C   0  0  2  0  0  0  0  0  0  0  0  0
    9.4178   17.9563   22.0275 N   0  0  0  0  0  0  0  0  0  0  0  0
    9.2207   16.4951   22.0933 C   0  0  0  0  0  0  0  0  0  0  0  0
    8.8732   15.8850   21.1359 O   0  0  0  0  0  0  0  0  0  0  0  0
    9.4416   15.8103   23.3680 N   0  0  0  0  0  0  0  0  0  0  0  0
    9.8600   16.5240   24.5338 C   0  0  0  0  0  0  0  0  0  0  0  0
   10.0718   15.8147   25.7525 N   0  0  0  0  0  0  0  0  0  0  0  0
   10.0819   17.9843   24.4673 C   0  0  0  0  0  0  0  0  0  0  0  0
    9.8554   18.6643   23.1993 C   0  0  0  0  0  0  0  0  0  0  0  0
  2  1  1  1
  2  3  2  0
  2  4  1  0
  2  5  1  0
  5  6  1  0
  6  7  2  0
  6  8  1  1
  6  9  1  0
  9 10  1  0
 11 10  1  1
 11 12  1  0
 11 13  1  0
 13 14  1  6
 13 15  1  0
 15 16  1  6
 12 17  1  0
 15 17  1  0
 17 18  1  1
 18 19  1  0
 19 20  2  0
 19 21  1  0
 21 22  2  0
 22 23  1  0
 22 24  1  0
 18 25  1  0
 24 25  2  0
M  END
