7TSF_H4B_A_802
     RDKit          3D

 32 33  0  0  0  0  0  0  0  0999 V2000
   10.2426    1.9935   34.5286 N   0  0  0  0  0  0  0  0  0  0  0  0
   10.7758    0.7651   34.7059 C   0  0  0  0  0  0  0  0  0  0  0  0
   12.0079    0.5138   34.2038 N   0  0  0  0  0  0  0  0  0  0  0  0
   10.1011   -0.1889   35.3903 N   0  0  0  0  0  4  0  0  0  0  0  0
    8.8707    0.0611   35.8994 C   0  0  0  0  0  0  0  0  0  0  0  0
    8.2347   -0.8175   36.5377 O   0  0  0  0  0  0  0  0  0  0  0  0
    8.3136    1.3120   35.7059 C   0  0  0  0  0  0  0  0  0  0  0  0
    9.0248    2.2800   35.0156 C   0  0  0  0  0  0  0  0  0  0  0  0
    7.0908    1.6108   36.1930 N   0  0  0  0  0  0  0  0  0  0  0  0
    8.5103    3.5256   34.8155 N   0  0  0  0  0  0  0  0  0  0  0  0
    6.3796    2.7027   35.5346 C   0  0  2  0  0  0  0  0  0  0  0  0
    7.2460    3.9447   35.3966 C   0  0  0  0  0  0  0  0  0  0  0  0
    5.0965    3.0556   36.2675 C   0  0  1  0  0  0  0  0  0  0  0  0
    4.7120    1.9643   37.1075 O   0  0  0  0  0  0  0  0  0  0  0  0
    5.2655    4.3256   37.0946 C   0  0  2  0  0  0  0  0  0  0  0  0
    3.9112    4.6957   37.6763 C   0  0  0  0  0  0  0  0  0  0  0  0
    5.7495    5.3901   36.2511 O   0  0  0  0  0  0  0  0  0  0  0  0
   12.4896    1.2147   33.7079 H   0  0  0  0  0  0  0  0  0  0  0  0
   12.4221   -0.3698   34.3347 H   0  0  0  0  0  0  0  0  0  0  0  0
   10.5097   -1.0753   35.5193 H   0  0  0  0  0  0  0  0  0  0  0  0
    6.6998    1.1192   36.9510 H   0  0  0  0  0  0  0  0  0  0  0  0
    9.0121    4.1635   34.2582 H   0  0  0  0  0  0  0  0  0  0  0  0
    6.1325    2.3523   34.5542 H   0  0  0  0  0  0  0  0  0  0  0  0
    6.7669    4.6565   34.7571 H   0  0  0  0  0  0  0  0  0  0  0  0
    7.4010    4.4069   36.3490 H   0  0  0  0  0  0  0  0  0  0  0  0
    4.3295    3.2375   35.5440 H   0  0  0  0  0  0  0  0  0  0  0  0
    5.4080    1.8001   37.7630 H   0  0  0  0  0  0  0  0  0  0  0  0
    5.9712    4.1678   37.8832 H   0  0  0  0  0  0  0  0  0  0  0  0
    3.2121    4.8516   36.8814 H   0  0  0  0  0  0  0  0  0  0  0  0
    4.0032    5.5932   38.2514 H   0  0  0  0  0  0  0  0  0  0  0  0
    3.5646    3.9027   38.3057 H   0  0  0  0  0  0  0  0  0  0  0  0
    5.1186    5.5442   35.5307 H   0  0  0  0  0  0  0  0  0  0  0  0
  1  2  4  0
  2  3  1  0
  2  4  4  0
  4  5  4  0
  5  6  2  0
  5  7  4  0
  1  8  4  0
  7  8  4  0
  7  9  1  0
  8 10  1  0
  9 11  1  0
 10 12  1  0
 11 12  1  0
 11 13  1  0
 13 14  1  0
 13 15  1  0
 15 16  1  0
 15 17  1  0
  3 18  1  0
  3 19  1  0
  4 20  1  0
  9 21  1  0
 10 22  1  0
 11 23  1  6
 12 24  1  0
 12 25  1  0
 13 26  1  6
 14 27  1  0
 15 28  1  1
 16 29  1  0
 16 30  1  0
 16 31  1  0
 17 32  1  0
M  CHG  1   4   1
M  END
