7TSF_H4B_A_802
     RDKit          3D

 17 18  0  0  0  0  0  0  0  0999 V2000
    9.8440    2.6100   34.0530 N   0  0  0  0  0  0  0  0  0  0  0  0
    9.9940    2.2280   32.7660 C   0  0  0  0  0  0  0  0  0  0  0  0
   11.2470    2.1000   32.2690 N   0  0  0  0  0  0  0  0  0  0  0  0
    8.9140    1.9580   31.9950 N   0  0  0  0  0  0  0  0  0  0  0  0
    7.6590    2.0790   32.4910 C   0  0  0  0  0  0  0  0  0  0  0  0
    6.6480    1.8300   31.7840 O   0  0  0  0  0  0  0  0  0  0  0  0
    7.5000    2.4860   33.8030 C   0  0  0  0  0  0  0  0  0  0  0  0
    8.6170    2.7440   34.5810 C   0  0  0  0  0  0  0  0  0  0  0  0
    6.2710    2.6220   34.3440 N   0  0  0  0  0  0  0  0  0  0  0  0
    8.4970    3.1370   35.8800 N   0  0  0  0  0  0  0  0  0  0  0  0
    6.1640    3.5150   35.4940 C   0  0  2  0  0  0  0  0  0  0  0  0
    7.2110    3.2070   36.5530 C   0  0  0  0  0  0  0  0  0  0  0  0
    4.7790    3.4610   36.1160 C   0  0  1  0  0  0  0  0  0  0  0  0
    4.4650    2.1100   36.4630 O   0  0  0  0  0  0  0  0  0  0  0  0
    4.6920    4.3570   37.3470 C   0  0  2  0  0  0  0  0  0  0  0  0
    3.2390    4.4160   37.7880 C   0  0  0  0  0  0  0  0  0  0  0  0
    5.1630    5.6790   37.0160 O   0  0  0  0  0  0  0  0  0  0  0  0
  1  2  2  0
  2  3  1  0
  2  4  1  0
  4  5  1  0
  5  6  2  0
  5  7  1  0
  1  8  1  0
  7  8  2  0
  7  9  1  0
  8 10  1  0
  9 11  1  0
 10 12  1  0
 11 12  1  1
 11 13  1  0
 13 14  1  1
 13 15  1  0
 15 16  1  6
 15 17  1  0
M  END
$$$$
