6YQV_8K2_H_308
     RDKit          3D

 10 10  0  0  0  0  0  0  0  0999 V2000
   11.0169  -10.4675   24.0401 C   0  0  0  0  0  0  0  0  0  0  0  0
   11.8161   -7.9047   24.8942 Cl  0  0  0  0  0  0  0  0  0  0  0  0
   11.8092   -9.3783   23.9736 C   0  0  0  0  0  0  0  0  0  0  0  0
   11.2275  -11.4799   23.2032 C   0  0  0  0  0  0  0  0  0  0  0  0
   12.9834   -9.7583   22.6200 S   0  0  0  0  0  0  0  0  0  0  0  0
   12.2720  -11.3438   22.2975 C   0  0  0  0  0  0  0  0  0  0  0  0
   12.7925  -12.5023   21.0745 S   0  0  2  0  0  6  0  0  0  0  0  0
   14.2486  -12.3113   20.8482 O   0  0  0  0  0  0  0  0  0  0  0  0
   12.1000  -12.2252   19.7547 O   0  0  0  0  0  0  0  0  0  0  0  0
   12.3564  -14.1070   21.5055 N   0  0  0  0  0  0  0  0  0  0  0  0
  1  3  2  0
  2  3  1  0
  1  4  1  0
  3  5  1  0
  4  6  2  0
  5  6  1  0
  6  7  1  0
  7  8  2  0
  7  9  2  0
  7 10  1  1
M  END
$$$$
