7V8Z_5YH_A_601
     RDKit          3D

 25 28  0  0  0  0  0  0  0  0999 V2000
   -7.6706   28.9260  -13.7532 C   0  0  0  0  0  0  0  0  0  0  0  0
   -5.3230   30.3476  -12.2749 C   0  0  0  0  0  0  0  0  0  0  0  0
   -4.3926   30.6257  -10.0574 C   0  0  0  0  0  0  0  0  0  0  0  0
   -5.3866   29.8220   -9.5377 C   0  0  0  0  0  0  0  0  0  0  0  0
   -8.0244   28.2472  -11.3404 C   0  0  0  0  0  0  0  0  0  0  0  0
   -9.1465   27.4449  -11.3468 C   0  0  0  0  0  0  0  0  0  0  0  0
   -9.6558   26.8779  -10.1909 C   0  0  0  0  0  0  0  0  0  0  0  0
   -7.8849   27.9288   -8.9496 C   0  0  0  0  0  0  0  0  0  0  0  0
   -8.9054   29.7004  -14.0864 C   0  0  2  0  0  0  0  0  0  0  0  0
   -9.1465   29.8272  -15.5561 C   0  0  0  0  0  0  0  0  0  0  0  0
  -11.6250   30.4410  -15.0079 C   0  0  0  0  0  0  0  0  0  0  0  0
  -12.3367   31.3982  -15.9720 C   0  0  0  0  0  0  0  0  0  0  0  0
  -11.1754   29.7410  -17.1475 C   0  0  0  0  0  0  0  0  0  0  0  0
   -6.3278   29.5366  -11.7578 C   0  0  0  0  0  0  0  0  0  0  0  0
   -4.3650   30.8831  -11.4122 C   0  0  0  0  0  0  0  0  0  0  0  0
   -6.3296   29.2967  -10.3969 C   0  0  0  0  0  0  0  0  0  0  0  0
   -7.4074   28.4769  -10.1277 C   0  0  0  0  0  0  0  0  0  0  0  0
   -9.0213   27.1190   -8.9727 C   0  0  0  0  0  0  0  0  0  0  0  0
   -3.4820   31.1264   -9.1902 F   0  0  0  0  0  0  0  0  0  0  0  0
   -9.5192   26.5636   -7.8365 F   0  0  0  0  0  0  0  0  0  0  0  0
  -10.5379   29.9872  -15.8881 N   0  0  0  0  0  0  0  0  0  0  0  0
  -12.3323   30.5689  -17.1796 N   0  0  0  0  0  0  0  0  0  0  0  0
   -7.3795   28.8838  -12.3345 N   0  0  0  0  0  0  0  0  0  0  0  0
   -8.8821   30.9221  -13.4223 O   0  0  0  0  0  0  0  0  0  0  0  0
  -10.7531   28.9354  -18.0255 O   0  0  0  0  0  0  0  0  0  0  0  0
  3  4  1  0
  5  6  2  0
  6  7  1  0
  1  9  1  0
  9 10  1  0
 11 12  1  0
  2 14  2  0
  2 15  1  0
  3 15  2  0
 14 16  1  0
  4 16  2  0
  5 17  1  0
 16 17  1  0
  8 17  2  0
  7 18  2  0
  8 18  1  0
  3 19  1  0
 18 20  1  0
 13 21  1  0
 11 21  1  1
 10 21  1  1
 13 22  1  0
 12 22  1  6
  1 23  1  6
 14 23  1  0
  5 23  1  0
  9 24  1  6
 13 25  2  0
M  END
$$$$
