7CNS_PMV_A_501
     RDKit          3D

 27 26  0  0  0  0  0  0  0  0999 V2000
    2.7182  -17.1954  -15.9837 O   0  0  0  0  0  0  0  0  0  0  0  0
    3.9104  -16.6374  -17.0525 P   0  0  1  0  0  5  0  0  0  0  0  0
    3.3509  -15.2888  -17.9143 O   0  0  0  0  0  0  0  0  0  0  0  0
    5.1200  -16.2232  -16.2470 O   0  0  0  0  0  0  0  0  0  0  0  0
    4.3766  -17.8794  -18.1263 O   0  0  0  0  0  0  0  0  0  0  0  0
    3.4187  -17.9741  -19.1539 C   0  0  1  0  0  0  0  0  0  0  0  0
    4.0255  -18.7734  -20.3168 C   0  0  2  0  0  0  0  0  0  0  0  0
    3.0201  -19.5819  -21.1853 C   0  0  2  0  0  0  0  0  0  0  0  0
    3.7148  -20.7314  -21.6194 O   0  0  0  0  0  0  0  0  0  0  0  0
    2.5800  -18.7451  -22.4125 C   0  0  2  0  0  0  0  0  0  0  0  0
    1.7905  -20.0085  -20.3327 C   0  0  1  0  0  0  0  0  0  0  0  0
    0.7790  -20.8032  -21.1059 C   0  0  0  0  0  0  0  0  0  0  0  0
   -0.2284  -20.1491  -21.8084 O   0  0  0  0  0  0  0  0  0  0  0  0
    0.8519  -22.0610  -21.1357 O   0  0  0  0  0  0  0  0  0  0  0  0
    2.2273  -17.8987  -16.4782 H   0  0  0  0  0  0  0  0  0  0  0  0
    2.8607  -15.6561  -18.6922 H   0  0  0  0  0  0  0  0  0  0  0  0
    2.5166  -18.5059  -18.7836 H   0  0  0  0  0  0  0  0  0  0  0  0
    3.1475  -16.9597  -19.5160 H   0  0  0  0  0  0  0  0  0  0  0  0
    4.7834  -19.4734  -19.8996 H   0  0  0  0  0  0  0  0  0  0  0  0
    4.5774  -18.0654  -20.9746 H   0  0  0  0  0  0  0  0  0  0  0  0
    3.1459  -21.2308  -22.2613 H   0  0  0  0  0  0  0  0  0  0  0  0
    1.8735  -19.3173  -23.0502 H   0  0  0  0  0  0  0  0  0  0  0  0
    3.4597  -18.4785  -23.0362 H   0  0  0  0  0  0  0  0  0  0  0  0
    2.0630  -17.8139  -22.1004 H   0  0  0  0  0  0  0  0  0  0  0  0
    2.1306  -20.6165  -19.4657 H   0  0  0  0  0  0  0  0  0  0  0  0
    1.2736  -19.1138  -19.9263 H   0  0  0  0  0  0  0  0  0  0  0  0
   -0.0057  -19.5173  -22.5681 H   0  0  0  0  0  0  0  0  0  0  0  0
  2  1  1  1
  2  3  1  0
  2  4  2  0
  2  5  1  0
  5  6  1  0
  6  7  1  0
  7  8  1  0
  8  9  1  6
  8 10  1  0
  8 11  1  0
 11 12  1  0
 12 13  1  0
 12 14  2  0
  1 15  1  0
  3 16  1  0
  6 17  1  1
  6 18  1  0
  7 19  1  1
  7 20  1  0
  9 21  1  0
 10 22  1  6
 10 23  1  0
 10 24  1  0
 11 25  1  1
 11 26  1  0
 13 27  1  0
M  END
