7VYJ_CA0_A_702
     RDKit          3D

 26 28  0  0  0  0  0  0  0  0999 V2000
   55.8537  -29.7841   28.9372 N   0  0  0  0  0  0  0  0  0  0  0  0
   55.5154  -30.8512   28.1854 C   0  0  0  0  0  0  0  0  0  0  0  0
   56.1063  -31.0393   26.9899 N   0  0  0  0  0  0  0  0  0  0  0  0
   57.0319  -30.1787   26.5297 C   0  0  0  0  0  0  0  0  0  0  0  0
   57.4094  -29.0679   27.2710 C   0  0  0  0  0  0  0  0  0  0  0  0
   56.7756  -28.9055   28.5052 C   0  0  0  0  0  0  0  0  0  0  0  0
   57.1128  -27.7932   29.3142 N   0  0  0  0  0  0  0  0  0  0  0  0
   58.3311  -28.3980   26.5838 N   0  0  0  0  0  0  0  0  0  0  0  0
   58.5419  -29.0540   25.4372 C   0  0  0  0  0  0  0  0  0  0  0  0
   57.7525  -30.1442   25.3942 N   0  0  0  0  0  0  0  0  0  0  0  0
   61.7122  -31.0456   20.5922 P   0  0  1  0  0  0  0  0  0  0  0  0
   63.4550  -33.1284   20.5661 C   0  0  0  0  0  0  0  0  0  0  0  0
   57.7362  -31.0665   24.2932 C   0  0  1  0  0  0  0  0  0  0  0  0
   62.3543  -29.4918   20.3756 O   0  0  0  0  0  0  0  0  0  0  0  0
   62.9159  -33.3779   19.4590 O   0  0  0  0  0  0  0  0  0  0  0  0
   57.2287  -30.4232   23.0178 C   0  0  2  0  0  0  0  0  0  0  0  0
   55.8710  -30.1510   23.0709 O   0  0  0  0  0  0  0  0  0  0  0  0
   61.3431  -31.6622   19.2532 O   0  0  0  0  0  0  0  0  0  0  0  0
   64.5036  -33.9215   21.1195 N   0  0  0  0  0  0  0  0  0  0  0  0
   57.5575  -31.5485   22.0555 C   0  0  2  0  0  0  0  0  0  0  0  0
   56.4779  -32.4425   22.0222 O   0  0  0  0  0  0  0  0  0  0  0  0
   62.9761  -32.0131   21.2561 O   0  0  0  0  0  0  0  0  0  0  0  0
   58.7123  -32.2227   22.7479 C   0  0  2  0  0  0  0  0  0  0  0  0
   59.0039  -31.4475   23.8802 O   0  0  0  0  0  0  0  0  0  0  0  0
   59.8494  -32.3295   21.7910 C   0  0  0  0  0  0  0  0  0  0  0  0
   60.3461  -31.0401   21.5489 O   0  0  0  0  0  0  0  0  0  0  0  0
  1  2  2  0
  2  3  1  0
  3  4  2  0
  4  5  1  0
  1  6  1  0
  5  6  2  0
  6  7  1  0
  5  8  1  0
  8  9  2  0
  4 10  1  0
  9 10  1  0
 13 10  1  1
 11 14  1  6
 12 15  2  0
 13 16  1  0
 16 17  1  1
 11 18  2  0
 12 19  1  0
 16 20  1  0
 20 21  1  1
 11 22  1  0
 12 22  1  0
 20 23  1  0
 13 24  1  0
 23 24  1  0
 23 25  1  6
 11 26  1  0
 25 26  1  0
M  END
$$$$
