7THI_PGA_B_301
     RDKit          3D

 14 13  0  0  0  0  0  0  0  0999 V2000
   41.8998   33.8490  112.4587 P   0  0  2  0  0  5  0  0  0  0  0  0
   42.7222   33.4367  111.1324 O   0  0  0  0  0  0  0  0  0  0  0  0
   42.5874   33.3637  113.7065 O   0  0  0  0  0  0  0  0  0  0  0  0
   40.5997   33.1323  112.2424 O   0  0  0  0  0  0  0  0  0  0  0  0
   41.7726   35.3540  112.4941 O   0  0  0  0  0  0  0  0  0  0  0  0
   43.5050   34.3214  110.3378 C   0  0  0  0  0  0  0  0  0  0  0  0
   43.0098   34.2065  108.9121 C   0  0  0  0  0  0  0  0  0  0  0  0
   43.8137   34.2315  107.9750 O   0  0  0  0  0  0  0  0  0  0  0  0
   41.8002   34.1244  108.6336 O   0  0  0  0  0  0  0  0  0  0  0  0
   40.7538   32.1761  112.2306 H   0  0  0  0  0  0  0  0  0  0  0  0
   42.6467   35.7519  112.6364 H   0  0  0  0  0  0  0  0  0  0  0  0
   43.3905   35.3260  110.6885 H   0  0  0  0  0  0  0  0  0  0  0  0
   44.5411   34.0672  110.3979 H   0  0  0  0  0  0  0  0  0  0  0  0
   41.1651   34.1032  109.3195 H   0  0  0  0  0  0  0  0  0  0  0  0
  1  2  1  1
  1  3  2  0
  1  4  1  0
  1  5  1  0
  2  6  1  0
  6  7  1  0
  7  8  2  0
  7  9  1  0
  4 10  1  0
  5 11  1  0
  6 12  1  0
  6 13  1  0
  9 14  1  0
M  END
