7THI_PGA_B_301
     RDKit          3D

  9  8  0  0  0  0  0  0  0  0999 V2000
   37.0710   34.8160  116.1140 P   0  0  0  0  0  0  0  0  0  0  0  0
   38.0520   35.6010  115.1020 O   0  0  0  0  0  0  0  0  0  0  0  0
   36.6040   33.5120  115.5230 O   0  0  0  0  0  0  0  0  0  0  0  0
   37.9730   34.5890  117.2890 O   0  0  0  0  0  0  0  0  0  0  0  0
   35.8820   35.7000  116.4180 O   0  0  0  0  0  0  0  0  0  0  0  0
   37.7200   36.0020  113.7770 C   0  0  0  0  0  0  0  0  0  0  0  0
   38.8070   36.9380  113.3000 C   0  0  0  0  0  0  0  0  0  0  0  0
   38.5100   38.0410  112.8240 O   0  0  0  0  0  0  0  0  0  0  0  0
   40.0140   36.6560  113.4030 O   0  0  0  0  0  0  0  0  0  0  0  0
  1  2  1  0
  1  3  2  0
  1  4  1  0
  1  5  1  0
  2  6  1  0
  6  7  1  0
  7  8  2  0
  7  9  1  0
M  END
$$$$
