7SIU_9ID_B_301
     RDKit          3D

 31 34  0  0  0  0  0  0  0  0999 V2000
  -30.5549   -1.6040    2.3370 N   0  0  0  0  0  0  0  0  0  0  0  0
  -27.3782   -1.5057    0.4814 N   0  0  0  0  0  0  0  0  0  0  0  0
  -29.1388   -0.5076   -0.7516 C   0  0  0  0  0  0  0  0  0  0  0  0
  -27.7957   -0.8453   -0.6063 C   0  0  0  0  0  0  0  0  0  0  0  0
  -28.2738   -1.7879    1.4340 C   0  0  0  0  0  0  0  0  0  0  0  0
  -27.7278   -2.5310    2.6339 C   0  0  0  0  0  0  0  0  0  0  0  0
  -26.7854   -0.4426   -1.5941 C   0  0  0  0  0  0  0  0  0  0  0  0
  -26.1643    0.3875   -3.9010 C   0  0  0  0  0  0  0  0  0  0  0  0
  -25.3334   -0.6137   -1.2056 C   0  0  0  0  0  0  0  0  0  0  0  0
  -21.5059   -2.3736   -1.4836 C   0  0  0  0  0  0  0  0  0  0  0  0
  -19.8221   -3.0071    0.1194 C   0  0  0  0  0  0  0  0  0  0  0  0
  -22.0685   -3.6404   -1.3614 C   0  0  0  0  0  0  0  0  0  0  0  0
  -32.7644   -1.6971    3.3709 C   0  0  0  0  0  0  0  0  0  0  0  0
  -21.6873   -1.3534   -3.6195 O   0  0  0  0  0  0  0  0  0  0  0  0
  -22.0807   -1.3994   -2.4572 C   0  0  0  0  0  0  0  0  0  0  0  0
  -21.4963   -4.5818   -0.5248 C   0  0  0  0  0  0  0  0  0  0  0  0
  -20.3706   -4.2688    0.2107 C   0  0  0  0  0  0  0  0  0  0  0  0
  -20.3809   -2.0610   -0.7230 C   0  0  0  0  0  0  0  0  0  0  0  0
  -23.0240   -0.5730   -1.9894 N   0  0  0  0  0  0  0  0  0  0  0  0
  -24.4143   -0.6502   -2.4270 C   0  0  2  0  0  0  0  0  0  0  0  0
  -24.7423    0.5069   -3.3594 C   0  0  0  0  0  0  0  0  0  0  0  0
  -27.1443    0.0524   -2.8134 C   0  0  0  0  0  0  0  0  0  0  0  0
  -30.0496   -0.7765    0.1954 N   0  0  0  0  0  0  0  0  0  0  0  0
  -26.4173   -2.7988    2.6140 N   0  0  0  0  0  0  0  0  0  0  0  0
  -28.4658   -2.8402    3.5968 O   0  0  0  0  0  0  0  0  0  0  0  0
  -29.6252   -1.4040    1.3086 C   0  0  0  0  0  0  0  0  0  0  0  0
  -31.9198   -1.2835    2.3344 C   0  0  0  0  0  0  0  0  0  0  0  0
  -32.7171   -0.6662    1.4175 C   0  0  0  0  0  0  0  0  0  0  0  0
  -34.0213   -1.3740    3.1088 N   0  0  0  0  0  0  0  0  0  0  0  0
  -33.9650   -0.7331    1.8938 N   0  0  0  0  0  0  0  0  0  0  0  0
  -35.1784   -0.2031    1.2846 C   0  0  0  0  0  0  0  0  0  0  0  0
  3  4  1  0
  2  4  2  0
  2  5  1  0
  5  6  1  0
  4  7  1  0
  7  9  1  0
 10 12  1  0
 14 15  2  0
 10 15  1  0
 12 16  2  0
 16 17  1  0
 11 17  2  0
 10 18  2  0
 11 18  1  0
 15 19  1  0
 20 19  1  1
  9 20  1  0
  8 21  1  0
 20 21  1  0
  8 22  1  0
  7 22  2  0
  3 23  2  0
  6 24  1  0
  6 25  2  0
 23 26  1  0
  5 26  2  0
  1 26  1  0
  1 27  1  0
 13 27  1  0
 27 28  2  0
 13 29  2  0
 28 30  1  0
 29 30  1  0
 30 31  1  0
M  END
