7R7R_AWJ_A_1501
     RDKit          3D

 58 61  0  0  0  0  0  0  0  0999 V2000
   29.8324   45.3364    8.8335 C   0  0  0  0  0  0  0  0  0  0  0  0
   28.8544   44.9856    9.7576 C   0  0  0  0  0  0  0  0  0  0  0  0
   27.7637   45.7598    9.9889 N   0  0  0  0  0  0  0  0  0  0  0  0
   27.6488   46.9020    9.2705 C   0  0  0  0  0  0  0  0  0  0  0  0
   28.5573   47.3355    8.3185 C   0  0  0  0  0  0  0  0  0  0  0  0
   29.6742   46.5299    8.1179 C   0  0  0  0  0  0  0  0  0  0  0  0
   30.8949   44.4463    8.6875 O   0  0  0  0  0  0  0  0  0  0  0  0
   28.9976   43.7814   10.4842 N   0  0  0  0  0  0  0  0  0  0  0  0
   30.6102   43.2409    7.9718 C   0  0  2  0  0  0  0  0  0  0  0  0
   29.1249   43.0878    7.8377 C   0  0  0  0  0  0  0  0  0  0  0  0
   31.1808   42.0996    8.7880 C   0  0  0  0  0  0  0  0  0  0  0  0
   28.4657   43.2775    6.6073 C   0  0  0  0  0  0  0  0  0  0  0  0
   27.0721   43.1501    6.5455 C   0  0  0  0  0  0  0  0  0  0  0  0
   26.3417   42.8731    7.7055 C   0  0  0  0  0  0  0  0  0  0  0  0
   26.9992   42.6797    8.9179 C   0  0  0  0  0  0  0  0  0  0  0  0
   28.3916   42.7786    8.9894 C   0  0  0  0  0  0  0  0  0  0  0  0
   26.2903   42.3966   10.0203 F   0  0  0  0  0  0  0  0  0  0  0  0
   29.1264   43.6215    5.4087 N   0  0  0  0  0  0  0  0  0  0  0  0
   29.5444   42.6491    4.5715 N   0  0  0  0  0  0  0  0  0  0  0  0
   30.4562   43.2734    3.8186 C   0  0  0  0  0  0  0  0  0  0  0  0
   30.5675   44.6041    4.2369 C   0  0  0  0  0  0  0  0  0  0  0  0
   29.7348   44.8117    5.2640 N   0  0  0  0  0  0  0  0  0  0  0  0
   28.3487   48.5584    7.5451 C   0  0  0  0  0  0  0  0  0  0  0  0
   27.2096   49.2604    7.1922 C   0  0  0  0  0  0  0  0  0  0  0  0
   27.4392   50.4195    6.4682 N   0  0  0  0  0  0  0  0  0  0  0  0
   28.7227   50.6111    6.2478 C   0  0  0  0  0  0  0  0  0  0  0  0
   29.7173   49.3653    6.8891 S   0  0  0  0  0  0  0  0  0  0  0  0
   25.8088   48.9343    7.5239 C   0  0  0  0  0  0  0  0  0  0  0  0
   29.3019   51.7785    5.5360 C   0  0  2  0  0  0  0  0  0  0  0  0
   30.2859   52.5257    6.4076 C   0  0  0  0  0  0  0  0  0  0  0  0
   28.3093   52.6911    5.0612 O   0  0  0  0  0  0  0  0  0  0  0  0
   30.0214   51.2781    4.2996 C   0  0  0  0  0  0  0  0  0  0  0  0
   29.6791   52.9237    7.6311 O   0  0  0  0  0  0  0  0  0  0  0  0
   26.8221   47.4944    9.4454 H   0  0  0  0  0  0  0  0  0  0  0  0
   30.3932   46.8148    7.4348 H   0  0  0  0  0  0  0  0  0  0  0  0
   29.7810   43.2050   10.3320 H   0  0  0  0  0  0  0  0  0  0  0  0
   28.3140   43.5193   11.1422 H   0  0  0  0  0  0  0  0  0  0  0  0
   31.0388   43.2544    6.9915 H   0  0  0  0  0  0  0  0  0  0  0  0
   30.7404   42.1033    9.7631 H   0  0  0  0  0  0  0  0  0  0  0  0
   30.9643   41.1712    8.3025 H   0  0  0  0  0  0  0  0  0  0  0  0
   32.2409   42.2180    8.8749 H   0  0  0  0  0  0  0  0  0  0  0  0
   26.5837   43.2607    5.6431 H   0  0  0  0  0  0  0  0  0  0  0  0
   25.3123   42.8119    7.6630 H   0  0  0  0  0  0  0  0  0  0  0  0
   28.8770   42.6246    9.8870 H   0  0  0  0  0  0  0  0  0  0  0  0
   29.2502   41.7105    4.5261 H   0  0  0  0  0  0  0  0  0  0  0  0
   30.9931   42.8420    3.0502 H   0  0  0  0  0  0  0  0  0  0  0  0
   31.1919   45.3124    3.8201 H   0  0  0  0  0  0  0  0  0  0  0  0
   29.6008   45.6354    5.7863 H   0  0  0  0  0  0  0  0  0  0  0  0
   25.7772   48.0208    8.0801 H   0  0  0  0  0  0  0  0  0  0  0  0
   25.3882   49.7240    8.1106 H   0  0  0  0  0  0  0  0  0  0  0  0
   25.2453   48.8216    6.6213 H   0  0  0  0  0  0  0  0  0  0  0  0
   31.1189   51.8889    6.6205 H   0  0  0  0  0  0  0  0  0  0  0  0
   30.6092   53.4019    5.8852 H   0  0  0  0  0  0  0  0  0  0  0  0
   27.8117   53.0476    5.8137 H   0  0  0  0  0  0  0  0  0  0  0  0
   30.7842   50.5847    4.5870 H   0  0  0  0  0  0  0  0  0  0  0  0
   29.3221   50.7912    3.6526 H   0  0  0  0  0  0  0  0  0  0  0  0
   30.4661   52.1049    3.7862 H   0  0  0  0  0  0  0  0  0  0  0  0
   29.3811   52.1375    8.1151 H   0  0  0  0  0  0  0  0  0  0  0  0
  1  2  4  0
  2  3  4  0
  3  4  4  0
  4  5  4  0
  1  6  4  0
  5  6  4  0
  1  7  1  0
  2  8  1  0
  7  9  1  0
  9 10  1  0
  9 11  1  0
 10 12  4  0
 12 13  4  0
 13 14  4  0
 14 15  4  0
 10 16  4  0
 15 16  4  0
 15 17  1  0
 12 18  1  0
 18 19  1  0
 19 20  1  0
 20 21  2  0
 18 22  1  0
 21 22  1  0
  5 23  1  0
 23 24  4  0
 24 25  4  0
 25 26  4  0
 23 27  4  0
 26 27  4  0
 24 28  1  0
 26 29  1  0
 29 30  1  0
 29 31  1  1
 29 32  1  0
 30 33  1  0
  4 34  1  0
  6 35  1  0
  8 36  1  0
  8 37  1  0
  9 38  1  1
 11 39  1  0
 11 40  1  0
 11 41  1  0
 13 42  1  0
 14 43  1  0
 16 44  1  0
 19 45  1  0
 20 46  1  0
 21 47  1  0
 22 48  1  0
 28 49  1  0
 28 50  1  0
 28 51  1  0
 30 52  1  0
 30 53  1  0
 31 54  1  0
 32 55  1  0
 32 56  1  0
 32 57  1  0
 33 58  1  0
M  END
