7A1P_QW2_A_505
     RDKit          3D

 25 24  0  0  0  0  0  0  0  0999 V2000
    0.0246    0.8550   -0.9860 C   0  0  0  0  0  0  0  0  0  0  0  0
   -1.0787    0.7335   -2.0539 C   0  0  0  0  0  0  0  0  0  0  0  0
   -1.1529   -0.6607   -2.6757 C   0  0  0  0  0  0  0  0  0  0  0  0
    2.4234   -1.9146    0.8022 C   0  0  0  0  0  0  0  0  0  0  0  0
   -1.5159    0.4007    0.9490 C   0  0  0  0  0  0  0  0  0  0  0  0
   -0.2255    0.0031    0.2829 C   0  0  2  0  0  0  0  0  0  0  0  0
    0.9308    0.1458    1.2949 C   0  0  0  0  0  0  0  0  0  0  0  0
    2.2098   -0.4587    0.7826 C   0  0  0  0  0  0  0  0  0  0  0  0
    3.1034    0.2945    0.3098 O   0  0  0  0  0  0  0  0  0  0  0  0
    3.4925   -2.4007    0.3451 O   0  0  0  0  0  0  0  0  0  0  0  0
    1.4491   -2.7604    1.3246 O   0  0  0  0  0  0  0  0  0  0  0  0
   -2.4345   -0.4486    1.1012 O   0  0  0  0  0  0  0  0  0  0  0  0
   -1.6970    1.7051    1.4006 O   0  0  0  0  0  0  0  0  0  0  0  0
    0.9916    0.5637   -1.4499 H   0  0  0  0  0  0  0  0  0  0  0  0
    0.1140    1.9254   -0.6967 H   0  0  0  0  0  0  0  0  0  0  0  0
   -0.8587    1.4627   -2.8636 H   0  0  0  0  0  0  0  0  0  0  0  0
   -2.0682    1.0046   -1.6280 H   0  0  0  0  0  0  0  0  0  0  0  0
   -1.8544   -0.6435   -3.5362 H   0  0  0  0  0  0  0  0  0  0  0  0
   -1.5315   -1.3994   -1.9395 H   0  0  0  0  0  0  0  0  0  0  0  0
   -0.1533   -0.9786   -3.0412 H   0  0  0  0  0  0  0  0  0  0  0  0
   -0.2926   -1.0678   -0.0080 H   0  0  0  0  0  0  0  0  0  0  0  0
    0.6600   -0.3598    2.2482 H   0  0  0  0  0  0  0  0  0  0  0  0
    1.0963    1.2199    1.5339 H   0  0  0  0  0  0  0  0  0  0  0  0
    1.5863   -3.7639    1.3412 H   0  0  0  0  0  0  0  0  0  0  0  0
   -2.5610    1.9841    1.8497 H   0  0  0  0  0  0  0  0  0  0  0  0
  1  2  1  0
  2  3  1  0
  6  1  1  0
  5  6  1  0
  6  7  1  0
  7  8  1  0
  4  8  1  0
  8  9  2  0
  4 10  2  0
  4 11  1  0
  5 12  2  0
  5 13  1  0
  1 14  1  0
  1 15  1  0
  2 16  1  0
  2 17  1  0
  3 18  1  0
  3 19  1  0
  3 20  1  0
  6 21  1  6
  7 22  1  0
  7 23  1  0
 11 24  1  0
 13 25  1  0
M  END
