7T2I_E9F_A_1705
     RDKit          3D

 29 33  0  0  0  0  0  0  0  0999 V2000
 -128.7099 -161.1756  121.3490 C   0  0  2  0  0  0  0  0  0  0  0  0
 -128.2416 -163.4926  120.3813 C   0  0  0  0  0  0  0  0  0  0  0  0
 -125.6722 -159.7803  118.8581 C   0  0  0  0  0  0  0  0  0  0  0  0
 -124.0053 -156.4492  118.2813 C   0  0  0  0  0  0  0  0  0  0  0  0
 -126.0303 -156.0928  119.4688 C   0  0  0  0  0  0  0  0  0  0  0  0
 -127.5834 -157.5469  120.1336 C   0  0  0  0  0  0  0  0  0  0  0  0
 -126.8128 -164.4759  118.0407 C   0  0  0  0  0  0  0  0  0  0  0  0
 -124.3880 -162.9600  117.2847 C   0  0  2  0  0  0  0  0  0  0  0  0
 -122.9461 -163.3721  117.4335 C   0  0  0  0  0  0  0  0  0  0  0  0
 -123.4250 -162.6554  116.1527 C   0  0  0  0  0  0  0  0  0  0  0  0
 -125.1929 -161.9989  118.1654 C   0  0  0  0  0  0  0  0  0  0  0  0
 -126.7666 -161.5523  119.7792 C   0  0  0  0  0  0  0  0  0  0  0  0
 -128.2455 -160.8399  122.7467 C   0  0  0  0  0  0  0  0  0  0  0  0
 -130.0265 -161.8315  121.7770 C   0  0  0  0  0  0  0  0  0  0  0  0
 -129.5777 -163.9126  120.9733 C   0  0  0  0  0  0  0  0  0  0  0  0
 -125.4175 -158.2824  118.8224 C   0  0  0  0  0  0  0  0  0  0  0  0
 -124.2131 -157.8250  118.2378 C   0  0  0  0  0  0  0  0  0  0  0  0
 -126.3334 -157.4132  119.4619 C   0  0  0  0  0  0  0  0  0  0  0  0
 -127.9864 -156.2954  120.5311 C   0  0  0  0  0  0  0  0  0  0  0  0
 -124.8887 -160.6406  118.0886 C   0  0  0  0  0  0  0  0  0  0  0  0
 -124.7248 -165.4547  116.2023 N   0  0  0  0  0  0  0  0  0  0  0  0
 -126.1204 -162.4174  119.0149 N   0  0  0  0  0  0  0  0  0  0  0  0
 -127.7725 -162.0834  120.6815 N   0  0  0  0  0  0  0  0  0  0  0  0
 -126.5718 -160.2340  119.7325 N   0  0  0  0  0  0  0  0  0  0  0  0
 -124.8835 -155.6336  118.8855 N   0  0  0  0  0  0  0  0  0  0  0  0
 -127.0406 -155.4386  120.1110 N   0  0  0  0  0  0  0  0  0  0  0  0
 -129.8092 -163.1436  122.1203 O   0  0  0  0  0  0  0  0  0  0  0  0
 -126.3955 -164.0951  115.6694 O   0  0  0  0  0  0  0  0  0  0  0  0
 -125.5162 -164.3030  116.7843 S   0  0  1  0  0  0  0  0  0  0  0  0
  8  9  1  0
  8 10  1  0
  9 10  1  0
  8 11  1  1
  1 13  1  1
  1 14  1  0
  2 15  1  0
  3 16  1  0
 16 17  1  0
  4 17  2  0
  6 18  1  0
  5 18  1  0
 16 18  2  0
  6 19  2  0
  3 20  2  0
 11 20  1  0
 12 22  1  0
 11 22  2  0
  1 23  1  0
  2 23  1  0
 12 23  1  0
 12 24  2  0
  3 24  1  0
  5 25  2  0
  4 25  1  0
 19 26  1  0
  5 26  1  0
 14 27  1  0
 15 27  1  0
 28 29  2  0
 29  7  1  1
  8 29  1  0
 21 29  2  0
M  END
