7RWO_7WN_A_3001
     RDKit          3D

 20 22  0  0  0  0  0  0  0  0999 V2000
    7.2043   -5.3515    3.1925 N   0  0  0  0  0  0  0  0  0  0  0  0
    8.6292   -5.1139    2.9186 C   0  0  0  0  0  0  0  0  0  0  0  0
    8.8637   -3.8381    2.1316 C   0  0  0  0  0  0  0  0  0  0  0  0
    8.0598   -2.6835    2.6202 C   0  0  0  0  0  0  0  0  0  0  0  0
    8.4383   -1.3749    2.1883 C   0  0  0  0  0  0  0  0  0  0  0  0
    7.7435   -0.2712    2.6343 C   0  0  0  0  0  0  0  0  0  0  0  0
    7.7452    1.9491    5.0813 C   0  0  0  0  0  0  0  0  0  0  0  0
    5.9183    3.7131    6.0703 C   0  0  0  0  0  0  0  0  0  0  0  0
    5.4641    2.6952    5.2401 C   0  0  0  0  0  0  0  0  0  0  0  0
    6.4111    1.7938    4.7309 C   0  0  0  0  0  0  0  0  0  0  0  0
    6.6906   -0.4254    3.4701 C   0  0  0  0  0  0  0  0  0  0  0  0
    6.3060   -1.6837    3.8873 C   0  0  0  0  0  0  0  0  0  0  0  0
    7.0432   -2.8283    3.4453 C   0  0  0  0  0  0  0  0  0  0  0  0
    6.5728   -4.2253    3.9496 C   0  0  0  0  0  0  0  0  0  0  0  0
    7.6392    4.9082    7.2229 C   0  0  0  0  0  0  0  0  0  0  0  0
    5.9338    0.7225    3.9026 N   0  0  0  0  0  0  0  0  0  0  0  0
    8.0745    2.9586    5.8537 N   0  0  0  0  0  0  0  0  0  0  0  0
    7.1898    3.8310    6.3455 N   0  0  0  0  0  0  0  0  0  0  0  0
    5.0210    4.6258    6.5800 O   0  0  0  0  0  0  0  0  0  0  0  0
    3.7470    2.5264    4.8173 Cl  0  0  0  0  0  0  0  0  0  0  0  0
  1  2  1  0
  2  3  1  0
  3  4  1  0
  4  5  1  0
  5  6  2  0
  8  9  1  0
  7 10  1  0
  9 10  2  0
  6 11  1  0
 11 12  2  0
  4 13  2  0
 12 13  1  0
  1 14  1  0
 13 14  1  0
 11 16  1  0
 10 16  1  0
  7 17  2  0
 17 18  1  0
  8 18  1  0
 15 18  1  0
  8 19  2  0
  9 20  1  0
M  END
