8AIJ_M9I_BBB_203
     RDKit          3D

 19 20  0  0  0  0  0  0  0  0999 V2000
  -21.2370    8.9732   -7.9075 C   0  0  1  0  0  0  0  0  0  0  0  0
  -22.6259    8.8448   -7.4152 C   0  0  2  0  0  0  0  0  0  0  0  0
  -23.3289    7.9050   -8.4081 C   0  0  1  0  0  0  0  0  0  0  0  0
  -23.3878    8.6777   -9.7004 C   0  0  1  0  0  0  0  0  0  0  0  0
  -22.1413    9.4134  -10.0287 C   0  0  2  0  0  0  0  0  0  0  0  0
  -21.7443    9.0019  -11.4389 C   0  0  0  0  0  0  0  0  0  0  0  0
  -23.3830    9.9760   -7.3764 O   0  0  0  0  0  0  0  0  0  0  0  0
  -22.7164    6.6795   -8.5020 O   0  0  0  0  0  0  0  0  0  0  0  0
  -23.8761    7.9063  -10.7553 O   0  0  0  0  0  0  0  0  0  0  0  0
  -21.0671    9.2050   -9.2401 O   0  0  0  0  0  0  0  0  0  0  0  0
  -18.9781   10.1945   -8.9404 O   0  0  0  0  0  0  0  0  0  0  0  0
  -19.3212   10.6121   -7.7846 C   0  0  0  0  0  0  0  0  0  0  0  0
  -20.4239    9.9359   -7.1933 N   0  0  0  0  0  0  0  0  0  0  0  0
  -18.6245   11.7084   -7.1225 C   0  0  0  0  0  0  0  0  0  0  0  0
  -17.4994   12.3134   -7.6263 C   0  0  0  0  0  0  0  0  0  0  0  0
  -19.1314   12.1581   -5.9208 C   0  0  0  0  0  0  0  0  0  0  0  0
  -18.5225   13.2051   -5.2224 C   0  0  0  0  0  0  0  0  0  0  0  0
  -17.3902   13.8085   -5.7368 C   0  0  0  0  0  0  0  0  0  0  0  0
  -16.8825   13.3598   -6.9381 C   0  0  0  0  0  0  0  0  0  0  0  0
  1  2  1  0
  2  3  1  0
  3  4  1  0
  4  5  1  0
  5  6  1  6
  2  7  1  6
  3  8  1  6
  4  9  1  6
  1 10  1  0
  5 10  1  0
 11 12  2  0
  1 13  1  1
 12 13  1  0
 12 14  1  0
 14 15  2  0
 14 16  1  0
 16 17  2  0
 17 18  1  0
 18 19  2  0
 15 19  1  0
M  END
$$$$
