7OEO_V9Z_AAA_501
     RDKit          3D

 32 34  0  0  0  0  0  0  0  0999 V2000
  -20.2286   -7.0594  -25.0985 N   0  0  0  0  0  0  0  0  0  0  0  0
  -19.1342   -6.7528  -25.9553 C   0  0  0  0  0  0  0  0  0  0  0  0
  -20.0247   -2.0004  -26.5855 C   0  0  0  0  0  0  0  0  0  0  0  0
  -23.2806   -3.2623  -24.7992 C   0  0  0  0  0  0  0  0  0  0  0  0
  -22.9427   -4.4938  -25.4882 N   0  0  0  0  0  0  0  0  0  0  0  0
  -21.9391   -5.3079  -24.8659 C   0  0  0  0  0  0  0  0  0  0  0  0
  -21.4610   -4.8636  -23.7977 O   0  0  0  0  0  0  0  0  0  0  0  0
  -21.5545   -6.5752  -25.5126 C   0  0  0  0  0  0  0  0  0  0  0  0
  -19.1062   -5.5900  -26.8349 C   0  0  1  0  0  0  0  0  0  0  0  0
  -19.0403   -4.2197  -26.3764 C   0  0  0  0  0  0  0  0  0  0  0  0
  -19.9656   -3.3149  -26.9545 C   0  0  0  0  0  0  0  0  0  0  0  0
  -19.1937   -1.4895  -25.6395 C   0  0  0  0  0  0  0  0  0  0  0  0
  -18.2796   -2.3225  -25.0487 C   0  0  0  0  0  0  0  0  0  0  0  0
  -18.2264   -3.6688  -25.4327 C   0  0  0  0  0  0  0  0  0  0  0  0
  -17.8330   -5.7892  -27.6771 C   0  0  0  0  0  0  0  0  0  0  0  0
  -18.0100   -6.0524  -29.0427 C   0  0  0  0  0  0  0  0  0  0  0  0
  -16.8847   -6.2157  -29.8176 C   0  0  0  0  0  0  0  0  0  0  0  0
  -15.6315   -6.1198  -29.2525 C   0  0  0  0  0  0  0  0  0  0  0  0
  -15.4660   -5.8569  -27.8905 C   0  0  0  0  0  0  0  0  0  0  0  0
  -16.5915   -5.6918  -27.1041 C   0  0  0  0  0  0  0  0  0  0  0  0
  -20.1648   -7.7931  -23.8858 C   0  0  0  0  0  0  0  0  0  0  0  0
  -21.1472   -7.7936  -23.0784 O   0  0  0  0  0  0  0  0  0  0  0  0
  -18.9881   -8.5618  -23.5237 C   0  0  0  0  0  0  0  0  0  0  0  0
  -18.2430   -8.0725  -22.4486 C   0  0  0  0  0  0  0  0  0  0  0  0
  -17.1016   -8.7037  -22.0037 C   0  0  0  0  0  0  0  0  0  0  0  0
  -16.3045   -8.1676  -20.8432 C   0  0  0  0  0  0  0  0  0  0  0  0
  -16.7029   -9.8503  -22.6547 C   0  0  0  0  0  0  0  0  0  0  0  0
  -15.5517  -10.4693  -22.1889 O   0  0  0  0  0  0  0  0  0  0  0  0
  -15.5017  -11.7104  -21.5496 C   0  0  0  0  0  0  0  0  0  0  0  0
  -17.4425  -10.3166  -23.7048 C   0  0  0  0  0  0  0  0  0  0  0  0
  -16.9788  -11.5555  -24.3808 C   0  0  0  0  0  0  0  0  0  0  0  0
  -18.5830   -9.7073  -24.1678 C   0  0  0  0  0  0  0  0  0  0  0  0
  1  2  1  0
  4  5  1  0
  5  6  1  0
  6  7  2  0
  1  8  1  0
  6  8  1  0
  9  2  1  1
  9 10  1  0
  3 11  2  0
 10 11  1  0
  3 12  1  0
 12 13  2  0
 13 14  1  0
 10 14  2  0
  9 15  1  0
 15 16  2  0
 16 17  1  0
 17 18  2  0
 18 19  1  0
 15 20  1  0
 19 20  2  0
  1 21  1  0
 21 22  2  0
 21 23  1  0
 23 24  2  0
 24 25  1  0
 25 26  1  0
 25 27  2  0
 27 28  1  0
 28 29  1  0
 27 30  1  0
 30 31  1  0
 23 32  1  0
 30 32  2  0
M  END
$$$$
