
     RDKit          3D

 14 13  0  0  0  0  0  0  0  0999 V2000
   26.9633   -4.5134   28.1161 P   0  0  2  0  0  5  0  0  0  0  0  0
   27.4706   -3.2320   28.8813 O   0  0  0  0  0  0  0  0  0  0  0  0
   26.6258   -2.2453   29.7993 P   0  0  0  0  0  5  0  0  0  0  0  0
   27.3356   -4.2251   26.5909 O   0  0  0  0  0  0  0  0  0  0  0  0
   25.5378   -4.9083   28.2724 O   0  0  0  0  0  0  0  0  0  0  0  0
   27.9835   -5.6876   28.4890 O   0  0  0  0  0  0  0  0  0  0  0  0
   25.4939   -2.9346   30.4994 O   0  0  0  0  0  0  0  0  0  0  0  0
   27.7338   -1.7418   30.8544 O   0  0  0  0  0  0  0  0  0  0  0  0
   25.9476   -0.5901   28.7427 S   0  0  0  0  0  0  0  0  0  0  0  0
   27.4407    0.3866   28.4021 C   0  0  0  0  0  0  0  0  0  0  0  0
   27.2821    1.8946   28.6284 C   0  0  0  0  0  0  0  0  0  0  0  0
   28.1823    2.4897   29.6902 C   0  0  0  0  0  0  0  0  0  0  0  0
   29.6232    2.7044   29.3237 C   0  0  0  0  0  0  0  0  0  0  0  0
   27.7042    2.8369   30.8966 C   0  0  0  0  0  0  0  0  0  0  0  0
  1  2  1  0
  3  2  1  0
  1  4  1  0
  1  5  2  0
  1  6  1  0
  3  7  2  0
  3  8  1  0
  3  9  1  0
  9 10  1  0
 10 11  1  0
 11 12  1  0
 12 13  1  0
 12 14  2  0
M  END
