1R58_AO5_A_501
     RDKit          3D

 45 45  0  0  0  0  0  0  0  0999 V2000
    1.7537   -3.5719   -3.4914 C   0  0  0  0  0  0  0  0  0  0  0  0
    0.5459   -2.6454   -3.6555 C   0  0  0  0  0  0  0  0  0  0  0  0
    1.3390   -4.9988   -3.1217 C   0  0  0  0  0  0  0  0  0  0  0  0
    3.0173   -2.9012   -2.3322 S   0  0  0  0  0  0  0  0  0  0  0  0
    2.0045   -2.6667   -0.8190 C   0  0  0  0  0  0  0  0  0  0  0  0
    1.6023   -1.1952   -0.6250 C   0  0  0  0  0  0  0  0  0  0  0  0
    2.7046   -0.3445    0.0515 C   0  0  1  0  0  0  0  0  0  0  0  0
    3.9061   -0.3322   -0.7893 N   0  0  0  0  0  0  0  0  0  0  0  0
    2.2167    1.1023    0.3295 C   0  0  2  0  0  0  0  0  0  0  0  0
    3.2737    1.8645    0.8543 O   0  0  0  0  0  0  0  0  0  0  0  0
    1.0687    1.1126    1.3079 C   0  0  0  0  0  0  0  0  0  0  0  0
    1.2917    0.8967    2.5302 O   0  0  0  0  0  0  0  0  0  0  0  0
   -0.2718    1.3292    0.8468 N   0  0  0  0  0  0  0  0  0  0  0  0
   -1.3654    1.3035    1.7317 N   0  0  0  0  0  0  0  0  0  0  0  0
   -2.7036    1.5382    1.2671 C   0  0  0  0  0  0  0  0  0  0  0  0
   -2.8883    1.9575    0.0919 O   0  0  0  0  0  0  0  0  0  0  0  0
   -3.8733    1.3172    2.1517 C   0  0  0  0  0  0  0  0  0  0  0  0
   -3.8103    0.4132    3.2293 C   0  0  0  0  0  0  0  0  0  0  0  0
   -4.9244    0.2112    4.0496 C   0  0  0  0  0  0  0  0  0  0  0  0
   -6.1128    0.9013    3.8026 C   0  0  0  0  0  0  0  0  0  0  0  0
   -6.1929    1.7927    2.7293 C   0  0  0  0  0  0  0  0  0  0  0  0
   -5.0808    1.9974    1.9047 C   0  0  0  0  0  0  0  0  0  0  0  0
   -7.6884    2.6546    2.4159 Cl  0  0  0  0  0  0  0  0  0  0  0  0
    2.2559   -3.6279   -4.4816 H   0  0  0  0  0  0  0  0  0  0  0  0
    0.8874   -1.6178   -3.9009 H   0  0  0  0  0  0  0  0  0  0  0  0
   -0.0736   -2.6148   -2.7362 H   0  0  0  0  0  0  0  0  0  0  0  0
   -0.0927   -3.0055   -4.4901 H   0  0  0  0  0  0  0  0  0  0  0  0
    0.7407   -5.4412   -3.9465 H   0  0  0  0  0  0  0  0  0  0  0  0
    2.2412   -5.6289   -2.9717 H   0  0  0  0  0  0  0  0  0  0  0  0
    0.7252   -5.0246   -2.1994 H   0  0  0  0  0  0  0  0  0  0  0  0
    2.5947   -3.0161    0.0544 H   0  0  0  0  0  0  0  0  0  0  0  0
    1.0930   -3.2927   -0.8448 H   0  0  0  0  0  0  0  0  0  0  0  0
    1.3170   -0.7420   -1.5981 H   0  0  0  0  0  0  0  0  0  0  0  0
    0.6957   -1.1875    0.0170 H   0  0  0  0  0  0  0  0  0  0  0  0
    2.9640   -0.8197    1.0251 H   0  0  0  0  0  0  0  0  0  0  0  0
    4.7008    0.0822   -0.2507 H   0  0  0  0  0  0  0  0  0  0  0  0
    3.7397    0.2688   -1.6297 H   0  0  0  0  0  0  0  0  0  0  0  0
    1.8866    1.5533   -0.6357 H   0  0  0  0  0  0  0  0  0  0  0  0
    3.0149    2.8189    0.7604 H   0  0  0  0  0  0  0  0  0  0  0  0
   -0.4333    1.4805   -0.1744 H   0  0  0  0  0  0  0  0  0  0  0  0
   -1.1967    1.1542    2.7510 H   0  0  0  0  0  0  0  0  0  0  0  0
   -2.9135   -0.1581    3.4280 H   0  0  0  0  0  0  0  0  0  0  0  0
   -4.8679   -0.4873    4.8746 H   0  0  0  0  0  0  0  0  0  0  0  0
   -6.9713    0.7388    4.4419 H   0  0  0  0  0  0  0  0  0  0  0  0
   -5.1579    2.6950    1.0797 H   0  0  0  0  0  0  0  0  0  0  0  0
  1  2  1  0
  1  3  1  0
  1  4  1  0
  4  5  1  0
  5  6  1  0
  6  7  1  0
  7  8  1  0
  7  9  1  0
  9 10  1  0
  9 11  1  0
 11 12  2  0
 11 13  1  0
 13 14  1  0
 14 15  1  0
 15 16  2  0
 15 17  1  0
 17 18  2  0
 18 19  1  0
 19 20  2  0
 20 21  1  0
 17 22  1  0
 21 22  2  0
 21 23  1  0
  1 24  1  0
  2 25  1  0
  2 26  1  0
  2 27  1  0
  3 28  1  0
  3 29  1  0
  3 30  1  0
  5 31  1  0
  5 32  1  0
  6 33  1  0
  6 34  1  0
  7 35  1  1
  8 36  1  0
  8 37  1  0
  9 38  1  6
 10 39  1  0
 13 40  1  0
 14 41  1  0
 18 42  1  0
 19 43  1  0
 20 44  1  0
 22 45  1  0
M  END
