7ROR_69X_B_401
     RDKit          3D

 58 61  0  0  0  0  0  0  0  0999 V2000
    3.4868    1.7995    3.0421 C   0  0  1  0  0  0  0  0  0  0  0  0
    2.9659    1.3662    4.4321 C   0  0  0  0  0  0  0  0  0  0  0  0
    2.0124    0.2004    4.3330 C   0  0  0  0  0  0  0  0  0  0  0  0
    2.4950   -1.0843    4.0383 C   0  0  0  0  0  0  0  0  0  0  0  0
    1.6043   -2.1417    3.8324 C   0  0  0  0  0  0  0  0  0  0  0  0
    0.2254   -1.9275    3.9159 C   0  0  0  0  0  0  0  0  0  0  0  0
   -0.2619   -0.6508    4.2225 C   0  0  0  0  0  0  0  0  0  0  0  0
    0.6264    0.4081    4.4286 C   0  0  0  0  0  0  0  0  0  0  0  0
    2.3520    2.1930    2.1349 C   0  0  0  0  0  0  0  0  0  0  0  0
    0.1851   -0.8731   -0.2484 C   0  0  0  0  0  0  0  0  0  0  0  0
   -0.5172   -2.2271   -0.4070 C   0  0  2  0  0  0  0  0  0  0  0  0
   -1.7785   -2.8213   -2.2189 C   0  0  2  0  0  0  0  0  0  0  0  0
   -0.3468   -3.1831   -2.5825 C   0  0  1  0  0  0  0  0  0  0  0  0
    0.3323   -3.2057   -1.2341 C   0  0  2  0  0  0  0  0  0  0  0  0
   -3.2124   -2.6172   -4.2875 C   0  0  0  0  0  0  0  0  0  0  0  0
   -3.0582   -0.5616   -4.7544 C   0  0  0  0  0  0  0  0  0  0  0  0
   -3.1136    0.7217   -5.2841 C   0  0  0  0  0  0  0  0  0  0  0  0
   -1.6908    1.4374   -3.5064 C   0  0  0  0  0  0  0  0  0  0  0  0
   -2.3370   -0.7991   -3.6355 C   0  0  0  0  0  0  0  0  0  0  0  0
    4.4525    2.8936    3.1602 N   0  0  0  0  0  0  0  0  0  0  0  0
   -2.4288   -2.0945   -3.3100 N   0  0  0  0  0  0  0  0  0  0  0  0
   -3.6283   -1.6957   -5.1986 N   0  0  0  0  0  0  0  0  0  0  0  0
   -3.8690    1.0194   -6.4576 N   0  0  0  0  0  0  0  0  0  0  0  0
   -2.4196    1.7041   -4.6368 N   0  0  0  0  0  0  0  0  0  0  0  0
   -1.6439    0.1718   -2.9932 N   0  0  0  0  0  0  0  0  0  0  0  0
   -0.6505   -2.9851    3.6867 O   0  0  0  0  0  0  0  0  0  0  0  0
    2.0597    3.4069    1.9574 O   0  0  0  0  0  0  0  0  0  0  0  0
    1.5866    1.1824    1.5522 O   0  0  0  0  0  0  0  0  0  0  0  0
    0.5524    2.2181   -0.8239 O   0  0  0  0  0  0  0  0  0  0  0  0
   -0.7388    2.4239    1.4396 O   0  0  0  0  0  0  0  0  0  0  0  0
   -0.6840    0.0291    0.3922 O   0  0  0  0  0  0  0  0  0  0  0  0
   -1.7647   -2.0360   -1.0471 O   0  0  0  0  0  0  0  0  0  0  0  0
   -0.2745   -4.4290   -3.2261 O   0  0  0  0  0  0  0  0  0  0  0  0
    0.3341   -4.4941   -0.6594 O   0  0  0  0  0  0  0  0  0  0  0  0
    0.1542    1.4911    0.6535 P   0  0  2  0  0  5  0  0  0  0  0  0
    4.0056    0.9342    2.5721 H   0  0  0  0  0  0  0  0  0  0  0  0
    3.8277    1.0691    5.0677 H   0  0  0  0  0  0  0  0  0  0  0  0
    2.4718    2.2264    4.9368 H   0  0  0  0  0  0  0  0  0  0  0  0
    3.5590   -1.2600    3.9438 H   0  0  0  0  0  0  0  0  0  0  0  0
    1.9868   -3.1244    3.5899 H   0  0  0  0  0  0  0  0  0  0  0  0
   -1.3274   -0.4741    4.2836 H   0  0  0  0  0  0  0  0  0  0  0  0
    0.2324    1.3952    4.6330 H   0  0  0  0  0  0  0  0  0  0  0  0
    1.1062   -1.0362    0.3560 H   0  0  0  0  0  0  0  0  0  0  0  0
    0.4621   -0.4917   -1.2563 H   0  0  0  0  0  0  0  0  0  0  0  0
   -0.6986   -2.6401    0.6105 H   0  0  0  0  0  0  0  0  0  0  0  0
   -2.3574   -3.7475   -2.0023 H   0  0  0  0  0  0  0  0  0  0  0  0
    0.1177   -2.3840   -3.2089 H   0  0  0  0  0  0  0  0  0  0  0  0
    1.3898   -2.8705   -1.3323 H   0  0  0  0  0  0  0  0  0  0  0  0
   -3.4772   -3.6645   -4.3450 H   0  0  0  0  0  0  0  0  0  0  0  0
   -1.1511    2.2353   -3.0158 H   0  0  0  0  0  0  0  0  0  0  0  0
    4.0359    3.6673    3.7292 H   0  0  0  0  0  0  0  0  0  0  0  0
    5.2879    2.5442    3.6818 H   0  0  0  0  0  0  0  0  0  0  0  0
   -3.8812    1.9901   -6.8407 H   0  0  0  0  0  0  0  0  0  0  0  0
   -4.4149    0.2766   -6.9460 H   0  0  0  0  0  0  0  0  0  0  0  0
   -1.6555   -2.8597    3.7274 H   0  0  0  0  0  0  0  0  0  0  0  0
    1.4171    1.8124   -1.0840 H   0  0  0  0  0  0  0  0  0  0  0  0
   -0.5060   -4.2669   -4.1756 H   0  0  0  0  0  0  0  0  0  0  0  0
   -0.6085   -4.7882   -0.5492 H   0  0  0  0  0  0  0  0  0  0  0  0
  1  2  1  0
  2  3  1  0
  3  4  2  0
  4  5  1  0
  5  6  2  0
  6  7  1  0
  7  8  2  0
  3  8  1  0
  1  9  1  0
 11 10  1  0
 12 13  1  0
 11 14  1  0
 13 14  1  0
 16 17  1  0
 16 19  2  0
  1 20  1  0
 12 21  1  0
 15 21  1  0
 19 21  1  0
 15 22  2  0
 16 22  1  0
 17 23  1  0
 18 24  1  0
 17 24  2  0
 19 25  1  0
 18 25  2  0
  6 26  1  0
  9 27  2  0
  9 28  1  0
 10 31  1  0
 11 32  1  0
 12 32  1  0
 13 33  1  0
 14 34  1  0
 35 28  1  1
 30 35  2  0
 35 29  1  0
 31 35  1  0
  1 36  1  6
  2 37  1  0
  2 38  1  0
  4 39  1  0
  5 40  1  0
  7 41  1  0
  8 42  1  0
 10 43  1  0
 10 44  1  0
 11 45  1  1
 12 46  1  1
 13 47  1  6
 14 48  1  6
 15 49  1  0
 18 50  1  0
 20 51  1  0
 20 52  1  0
 23 53  1  0
 23 54  1  0
 26 55  1  0
 29 56  1  0
 33 57  1  0
 34 58  1  0
M  END
