
     RDKit          3D

 35 38  0  0  0  0  0  0  0  0999 V2000
    6.9782   -2.0749   52.5957 C   0  0  1  0  0  0  0  0  0  0  0  0
    7.2393   -0.6158   52.1776 C   0  0  0  0  0  0  0  0  0  0  0  0
    7.8451   -0.4251   50.8040 C   0  0  0  0  0  0  0  0  0  0  0  0
    7.1334    0.2407   49.7973 C   0  0  0  0  0  0  0  0  0  0  0  0
    7.6788    0.3890   48.5200 C   0  0  0  0  0  0  0  0  0  0  0  0
    8.9472   -0.1132   48.2527 C   0  0  0  0  0  0  0  0  0  0  0  0
    9.6791   -0.7628   49.2376 C   0  0  0  0  0  0  0  0  0  0  0  0
    9.1250   -0.9190   50.5113 C   0  0  0  0  0  0  0  0  0  0  0  0
    6.1365   -2.1194   53.8748 C   0  0  0  0  0  0  0  0  0  0  0  0
    9.0697   -1.2279   56.3574 C   0  0  0  0  0  0  0  0  0  0  0  0
   10.4278   -1.8939   56.1314 C   0  0  2  0  0  0  0  0  0  0  0  0
   11.0760   -3.8617   57.2092 C   0  0  2  0  0  0  0  0  0  0  0  0
   10.2125   -4.2810   56.0252 C   0  0  1  0  0  0  0  0  0  0  0  0
   10.3645   -3.0561   55.1340 C   0  0  2  0  0  0  0  0  0  0  0  0
    9.5786   -4.6205   59.0398 C   0  0  0  0  0  0  0  0  0  0  0  0
   10.8864   -5.7560   60.2764 C   0  0  0  0  0  0  0  0  0  0  0  0
   11.5021   -6.5603   61.2498 C   0  0  0  0  0  0  0  0  0  0  0  0
   13.4762   -6.2940   60.0851 C   0  0  0  0  0  0  0  0  0  0  0  0
   11.6892   -5.2655   59.2528 C   0  0  0  0  0  0  0  0  0  0  0  0
    6.3945   -2.9064   51.5130 N   0  0  0  0  0  0  0  0  0  0  0  0
   10.8233   -4.5624   58.4513 N   0  0  0  0  0  0  0  0  0  0  0  0
    9.5797   -5.3415   60.1369 N   0  0  0  0  0  0  0  0  0  0  0  0
   10.8165   -7.1066   62.3244 N   0  0  0  0  0  0  0  0  0  0  0  0
   12.8149   -6.8334   61.1275 N   0  0  0  0  0  0  0  0  0  0  0  0
   13.0157   -5.4657   59.1132 N   0  0  0  0  0  0  0  0  0  0  0  0
    9.4482    0.0360   46.9905 O   0  0  0  0  0  0  0  0  0  0  0  0
    5.0163   -2.6042   53.9239 O   0  0  0  0  0  0  0  0  0  0  0  0
    6.7906   -1.6013   54.9214 O   0  0  0  0  0  0  0  0  0  0  0  0
    6.4243   -3.7321   56.2654 O   0  0  0  0  0  0  0  0  0  0  0  0
    5.7504   -1.4381   57.3709 O   0  0  0  0  0  0  0  0  0  0  0  0
    8.1750   -2.2032   56.8513 O   0  0  0  0  0  0  0  0  0  0  0  0
   10.8891   -2.4472   57.3942 O   0  0  0  0  0  0  0  0  0  0  0  0
   10.6984   -5.4516   55.3605 O   0  0  0  0  0  0  0  0  0  0  0  0
   11.6103   -3.1418   54.4197 O   0  0  0  0  0  0  0  0  0  0  0  0
    6.6349   -2.1481   56.4028 P   0  0  2  0  0  5  0  0  0  0  0  0
  1  2  1  0
  2  3  1  0
  3  4  4  0
  4  5  4  0
  5  6  4  0
  6  7  4  0
  7  8  4  0
  3  8  4  0
  1  9  1  0
 11 10  1  1
 12 13  1  0
 11 14  1  0
 13 14  1  0
 16 17  4  0
 16 19  4  0
  1 20  1  6
 12 21  1  1
 15 21  4  0
 19 21  4  0
 15 22  4  0
 16 22  4  0
 17 23  1  0
 18 24  4  0
 17 24  4  0
 19 25  4  0
 18 25  4  0
  6 26  1  0
  9 27  2  0
  9 28  1  0
 10 31  1  0
 11 32  1  0
 12 32  1  0
 13 33  1  6
 14 34  1  1
 28 35  1  0
 30 35  2  0
 35 29  1  6
 31 35  1  0
M  END
