1JJE_BYS_A_250
     RDKit          3D

 43 45  0  0  0  0  0  0  0  0999 V2000
   58.6316   24.6304   35.8466 C   0  0  2  0  0  0  0  0  0  0  0  0
   59.6745   25.7024   36.0908 C   0  0  0  0  0  0  0  0  0  0  0  0
   60.4011   26.0687   35.1415 O   0  0  0  0  0  0  0  0  0  0  0  0
   59.8609   26.2443   37.2020 O   0  0  0  0  0  0  0  0  0  0  0  0
   58.7368   24.0633   34.4168 C   0  0  0  0  0  0  0  0  0  0  0  0
   57.3857   23.5391   33.9542 C   0  0  0  0  0  0  0  0  0  0  0  0
   56.5550   22.8440   34.8303 C   0  0  0  0  0  0  0  0  0  0  0  0
   55.2951   22.3762   34.4312 C   0  0  0  0  0  0  0  0  0  0  0  0
   54.8733   22.5657   33.1020 C   0  0  0  0  0  0  0  0  0  0  0  0
   55.6875   23.2736   32.2273 C   0  0  0  0  0  0  0  0  0  0  0  0
   56.9554   23.7221   32.6343 C   0  0  0  0  0  0  0  0  0  0  0  0
   57.2022   25.1529   36.0572 C   0  0  2  0  0  0  0  0  0  0  0  0
   57.0856   25.9359   37.3347 C   0  0  0  0  0  0  0  0  0  0  0  0
   56.9013   27.1751   37.3466 O   0  0  0  0  0  0  0  0  0  0  0  0
   57.1433   25.3353   38.4383 O   0  0  0  0  0  0  0  0  0  0  0  0
   56.2211   23.9504   36.0334 C   0  0  0  0  0  0  0  0  0  0  0  0
   55.8571   23.7330   34.5790 C   0  0  0  0  0  0  0  0  0  0  0  0
   56.8560   23.6520   33.5791 C   0  0  0  0  0  0  0  0  0  0  0  0
   56.3924   23.4752   32.2770 C   0  0  0  0  0  0  0  0  0  0  0  0
   57.1043   23.2964   31.1596 O   0  0  0  0  0  0  0  0  0  0  0  0
   56.1928   23.1100   30.0655 C   0  0  0  0  0  0  0  0  0  0  0  0
   54.8790   23.1616   30.6579 O   0  0  0  0  0  0  0  0  0  0  0  0
   55.0457   23.3406   31.9748 C   0  0  0  0  0  0  0  0  0  0  0  0
   54.0631   23.3878   32.9602 C   0  0  0  0  0  0  0  0  0  0  0  0
   54.5034   23.6186   34.2822 C   0  0  0  0  0  0  0  0  0  0  0  0
   58.8292   23.8586   36.5610 H   0  0  0  0  0  0  0  0  0  0  0  0
   59.3364   25.9965   37.9379 H   0  0  0  0  0  0  0  0  0  0  0  0
   59.0606   24.8377   33.7533 H   0  0  0  0  0  0  0  0  0  0  0  0
   59.4414   23.2580   34.4134 H   0  0  0  0  0  0  0  0  0  0  0  0
   56.8746   22.6693   35.7959 H   0  0  0  0  0  0  0  0  0  0  0  0
   54.6811   21.8961   35.1076 H   0  0  0  0  0  0  0  0  0  0  0  0
   53.9700   22.1833   32.7811 H   0  0  0  0  0  0  0  0  0  0  0  0
   55.3582   23.4719   31.2696 H   0  0  0  0  0  0  0  0  0  0  0  0
   57.5748   24.1904   31.9546 H   0  0  0  0  0  0  0  0  0  0  0  0
   56.9516   25.8272   35.2650 H   0  0  0  0  0  0  0  0  0  0  0  0
   57.2802   24.4087   38.4608 H   0  0  0  0  0  0  0  0  0  0  0  0
   56.6941   23.0774   36.4322 H   0  0  0  0  0  0  0  0  0  0  0  0
   55.3531   24.1426   36.6288 H   0  0  0  0  0  0  0  0  0  0  0  0
   57.8618   23.7195   33.8000 H   0  0  0  0  0  0  0  0  0  0  0  0
   56.3096   23.8898   29.3422 H   0  0  0  0  0  0  0  0  0  0  0  0
   56.3654   22.1868   29.5528 H   0  0  0  0  0  0  0  0  0  0  0  0
   53.0638   23.2606   32.7360 H   0  0  0  0  0  0  0  0  0  0  0  0
   53.8087   23.7038   35.0407 H   0  0  0  0  0  0  0  0  0  0  0  0
  1  2  1  0
  2  3  2  0
  2  4  1  0
  1  5  1  0
  5  6  1  0
  6  7  2  0
  7  8  1  0
  8  9  2  0
  9 10  1  0
  6 11  1  0
 10 11  2  0
  1 12  1  0
 12 13  1  0
 13 14  2  0
 13 15  1  0
 12 16  1  0
 16 17  1  0
 17 18  2  0
 18 19  1  0
 19 20  1  0
 20 21  1  0
 21 22  1  0
 19 23  2  0
 22 23  1  0
 23 24  1  0
 17 25  1  0
 24 25  2  0
  1 26  1  6
  4 27  1  0
  5 28  1  0
  5 29  1  0
  7 30  1  0
  8 31  1  0
  9 32  1  0
 10 33  1  0
 11 34  1  0
 12 35  1  1
 15 36  1  0
 16 37  1  0
 16 38  1  0
 18 39  1  0
 21 40  1  0
 21 41  1  0
 24 42  1  0
 25 43  1  0
M  END
