7SFO_98L_A_601
     RDKit          3D

 25 28  0  0  0  0  0  0  0  0999 V2000
    1.6209    0.3306    5.2005 N   0  0  0  0  0  0  0  0  0  0  0  0
    4.2645   -0.6222    8.3007 N   0  0  0  0  0  0  0  0  0  0  0  0
    4.0751   -3.2004    8.2904 C   0  0  0  0  0  0  0  0  0  0  0  0
    2.7637   -3.3855    8.2283 C   0  0  0  0  0  0  0  0  0  0  0  0
    2.0938   -4.4622    9.0552 C   0  0  0  0  0  0  0  0  0  0  0  0
    2.0497   -2.5408    7.2023 C   0  0  0  0  0  0  0  0  0  0  0  0
    1.5622   -0.8347    5.7727 C   0  0  0  0  0  0  0  0  0  0  0  0
    2.5622    1.1544    5.6567 C   0  0  0  0  0  0  0  0  0  0  0  0
    5.3049    0.3187    8.6307 C   0  0  0  0  0  0  0  0  0  0  0  0
    7.4046    0.0704    9.8724 C   0  0  0  0  0  0  0  0  0  0  0  0
    8.5436   -2.0603   10.3389 C   0  0  0  0  0  0  0  0  0  0  0  0
    2.8443   -5.1534    9.8866 C   0  0  0  0  0  0  0  0  0  0  0  0
    3.3665   -0.2996    7.2266 C   0  0  0  0  0  0  0  0  0  0  0  0
    1.0399   -3.1334    6.5065 C   0  0  0  0  0  0  0  0  0  0  0  0
    6.4366   -0.5143    9.2238 C   0  0  0  0  0  0  0  0  0  0  0  0
    8.5378   -0.7512   10.4787 C   0  0  0  0  0  0  0  0  0  0  0  0
    7.4198   -2.7498    9.5756 C   0  0  0  0  0  0  0  0  0  0  0  0
    6.4415   -2.0357    9.0457 C   0  0  0  0  0  0  0  0  0  0  0  0
    4.3454   -4.9335    9.9803 C   0  0  0  0  0  0  0  0  0  0  0  0
    4.9429   -4.0194    9.2386 C   0  0  0  0  0  0  0  0  0  0  0  0
    2.4233   -1.2139    6.8162 C   0  0  0  0  0  0  0  0  0  0  0  0
    3.4373    0.8996    6.6454 N   0  0  0  0  0  0  0  0  0  0  0  0
    9.5665   -0.1034   11.1839 O   0  0  0  0  0  0  0  0  0  0  0  0
    0.3576   -2.0672    5.2872 S   0  0  0  0  0  0  0  0  0  0  0  0
    2.6245    2.7336    4.8298 Cl  0  0  0  0  0  0  0  0  0  0  0  0
  3  4  2  0
  4  5  1  0
  4  6  1  0
  1  7  2  0
  1  8  1  0
  2  9  1  0
  5 12  2  0
  2 13  1  0
  6 14  2  0
 10 15  2  0
  9 15  1  0
 11 16  2  0
 10 16  1  0
 11 17  1  0
 17 18  2  0
 15 18  1  0
 12 19  1  0
 19 20  2  0
  3 20  1  0
  6 21  1  0
 13 21  2  0
  7 21  1  0
 13 22  1  0
  8 22  2  0
 16 23  1  0
 14 24  1  0
  7 24  1  0
  8 25  1  0
M  END
