6WTN_RXT_A_1204
     RDKit          3D

 41 44  0  0  0  0  0  0  0  0999 V2000
   24.1400   14.0165    7.0806 C   0  0  1  0  0  0  0  0  0  0  0  0
   23.9919   12.7124    6.3074 C   0  0  2  0  0  0  0  0  0  0  0  0
   22.6695   12.7988    5.5470 C   0  0  2  0  0  0  0  0  0  0  0  0
   22.0490   14.1480    5.8908 C   0  0  2  0  0  0  0  0  0  0  0  0
   23.2068   15.0099    6.3940 C   0  0  1  0  0  0  0  0  0  0  0  0
   22.8393   16.2194    7.3070 C   0  0  1  0  0  0  0  0  0  0  0  0
   21.8531   17.2264    6.6677 C   0  0  2  0  0  0  0  0  0  0  0  0
   20.9470   16.6410    5.6712 C   0  0  0  0  0  0  0  0  0  0  0  0
   20.2282   16.1875    4.8857 N   0  0  0  0  0  0  0  0  0  0  0  0
   22.4477   15.8260    8.6719 N   0  0  0  0  0  0  0  0  0  0  0  0
   21.2262   15.8985    9.2432 C   0  0  0  0  0  0  0  0  0  0  0  0
   23.3127   15.3381    9.5495 N   0  0  0  0  0  0  0  0  0  0  0  0
   22.6507   15.0804   10.6932 C   0  0  0  0  0  0  0  0  0  0  0  0
   21.3185   15.4132   10.5303 C   0  0  0  0  0  0  0  0  0  0  0  0
   20.2283   15.3601   11.5226 C   0  0  0  0  0  0  0  0  0  0  0  0
   19.2061   16.2642   11.4422 N   0  0  0  0  0  0  0  0  0  0  0  0
   18.1732   16.2710   12.3411 C   0  0  0  0  0  0  0  0  0  0  0  0
   18.1305   15.3558   13.3523 N   0  0  0  0  0  0  0  0  0  0  0  0
   19.1321   14.4488   13.4422 C   0  0  0  0  0  0  0  0  0  0  0  0
   20.1712   14.4199   12.5573 C   0  0  0  0  0  0  0  0  0  0  0  0
   20.9510   13.3295   12.8967 C   0  0  0  0  0  0  0  0  0  0  0  0
   20.3282   12.7634   14.0060 C   0  0  0  0  0  0  0  0  0  0  0  0
   19.2136   13.4535   14.3367 N   0  0  0  0  0  0  0  0  0  0  0  0
   23.8286   13.8466    8.1338 H   0  0  0  0  0  0  0  0  0  0  0  0
   25.1920   14.3764    7.0676 H   0  0  0  0  0  0  0  0  0  0  0  0
   23.9957   11.8435    7.0012 H   0  0  0  0  0  0  0  0  0  0  0  0
   24.8344   12.6009    5.5897 H   0  0  0  0  0  0  0  0  0  0  0  0
   21.9890   11.9682    5.8366 H   0  0  0  0  0  0  0  0  0  0  0  0
   22.8597   12.7385    4.4525 H   0  0  0  0  0  0  0  0  0  0  0  0
   21.2876   13.9884    6.6794 H   0  0  0  0  0  0  0  0  0  0  0  0
   21.5661   14.5911    4.9949 H   0  0  0  0  0  0  0  0  0  0  0  0
   23.7470   15.4040    5.5021 H   0  0  0  0  0  0  0  0  0  0  0  0
   23.7813   16.8068    7.4055 H   0  0  0  0  0  0  0  0  0  0  0  0
   22.4302   18.0341    6.1687 H   0  0  0  0  0  0  0  0  0  0  0  0
   21.2422   17.6995    7.4658 H   0  0  0  0  0  0  0  0  0  0  0  0
   20.3261   16.2584    8.7668 H   0  0  0  0  0  0  0  0  0  0  0  0
   23.1266   14.7197   11.5935 H   0  0  0  0  0  0  0  0  0  0  0  0
   17.3841   17.0041   12.2465 H   0  0  0  0  0  0  0  0  0  0  0  0
   21.8304   12.9527   12.3953 H   0  0  0  0  0  0  0  0  0  0  0  0
   20.6651   11.8772   14.5276 H   0  0  0  0  0  0  0  0  0  0  0  0
   18.5441   13.2380   15.1084 H   0  0  0  0  0  0  0  0  0  0  0  0
  1  2  1  0
  2  3  1  0
  3  4  1  0
  4  5  1  0
  1  5  1  0
  5  6  1  0
  6  7  1  0
  7  8  1  0
  8  9  3  0
  6 10  1  0
 10 11  1  0
 10 12  1  0
 12 13  2  0
 13 14  1  0
 11 14  2  0
 14 15  1  0
 15 16  2  0
 16 17  1  0
 17 18  2  0
 18 19  1  0
 15 20  1  0
 19 20  2  0
 20 21  1  0
 21 22  2  0
 19 23  1  0
 22 23  1  0
  1 24  1  1
  1 25  1  0
  2 26  1  1
  2 27  1  0
  3 28  1  1
  3 29  1  0
  4 30  1  1
  4 31  1  0
  5 32  1  6
  6 33  1  1
  7 34  1  6
  7 35  1  0
 11 36  1  0
 13 37  1  0
 17 38  1  0
 21 39  1  0
 22 40  1  0
 23 41  1  0
M  END
