7UAS_MBU_A_401
     RDKit          3D

 40 45  0  0  0  0  0  0  0  0999 V2000
  -16.3464  -24.3627  -20.3351 C   0  0  0  0  0  0  0  0  0  0  0  0
  -13.5123  -23.1572  -19.8742 C   0  0  0  0  0  0  0  0  0  0  0  0
  -13.5439  -26.6703  -20.7565 C   0  0  0  0  0  0  0  0  0  0  0  0
  -20.9545  -22.3608  -23.5248 C   0  0  1  0  0  0  0  0  0  0  0  0
  -19.4177  -17.6260  -23.3891 C   0  0  0  0  0  0  0  0  0  0  0  0
  -19.2689  -17.0520  -24.7605 C   0  0  0  0  0  0  0  0  0  0  0  0
  -15.4511  -25.3217  -30.1177 C   0  0  0  0  0  0  0  0  0  0  0  0
  -16.6553  -25.8650  -29.4487 C   0  0  0  0  0  0  0  0  0  0  0  0
  -13.0725  -21.6908  -28.7210 C   0  0  0  0  0  0  0  0  0  0  0  0
  -13.0904  -23.6441  -26.9457 C   0  0  0  0  0  0  0  0  0  0  0  0
  -17.4045  -23.4999  -26.6518 C   0  0  0  0  0  0  0  0  0  0  0  0
  -15.3335  -24.4488  -27.6509 C   0  0  1  0  0  0  0  0  0  0  0  0
  -15.8559  -24.6977  -25.1902 C   0  0  0  0  0  0  0  0  0  0  0  0
  -16.4371  -24.0203  -24.0390 C   0  0  0  0  0  0  0  0  0  0  0  0
  -17.2546  -22.9472  -24.2918 C   0  0  0  0  0  0  0  0  0  0  0  0
  -17.5906  -22.4383  -25.6379 C   0  0  0  0  0  0  0  0  0  0  0  0
  -17.8007  -22.3080  -23.1755 C   0  0  0  0  0  0  0  0  0  0  0  0
  -17.5164  -22.7544  -21.8844 C   0  0  0  0  0  0  0  0  0  0  0  0
  -16.6874  -23.8403  -21.6721 C   0  0  0  0  0  0  0  0  0  0  0  0
  -16.1544  -24.4625  -22.7832 C   0  0  0  0  0  0  0  0  0  0  0  0
  -13.8612  -24.5582  -20.2449 C   0  0  0  0  0  0  0  0  0  0  0  0
  -14.9059  -26.3929  -20.7632 C   0  0  0  0  0  0  0  0  0  0  0  0
  -20.0683  -21.1707  -23.4347 C   0  0  0  0  0  0  0  0  0  0  0  0
  -18.6793  -21.1614  -23.2819 C   0  0  0  0  0  0  0  0  0  0  0  0
  -18.2304  -19.8547  -23.2420 C   0  0  0  0  0  0  0  0  0  0  0  0
  -16.1023  -24.6125  -28.9123 C   0  0  1  0  0  0  0  0  0  0  0  0
  -11.9698  -21.8149  -27.9021 C   0  0  0  0  0  0  0  0  0  0  0  0
  -14.1969  -23.4939  -27.7911 C   0  0  0  0  0  0  0  0  0  0  0  0
  -11.9934  -22.8363  -26.9829 C   0  0  0  0  0  0  0  0  0  0  0  0
  -10.8454  -23.0607  -26.0438 C   0  0  0  0  0  0  0  0  0  0  0  0
  -20.6957  -23.2550  -22.4952 F   0  0  0  0  0  0  0  0  0  0  0  0
  -22.2724  -22.0687  -23.6844 F   0  0  0  0  0  0  0  0  0  0  0  0
  -20.5665  -23.0455  -24.6852 F   0  0  0  0  0  0  0  0  0  0  0  0
  -16.1556  -24.2227  -26.5170 N   0  0  0  0  0  0  0  0  0  0  0  0
  -12.9238  -25.5129  -20.4317 N   0  0  0  0  0  0  0  0  0  0  0  0
  -15.0816  -25.0999  -20.4490 N   0  0  0  0  0  0  0  0  0  0  0  0
  -20.3971  -19.8600  -23.4805 N   0  0  0  0  0  0  0  0  0  0  0  0
  -19.3401  -19.0937  -23.3697 N   0  0  0  0  0  0  0  0  0  0  0  0
  -14.1396  -22.4955  -28.6677 N   0  0  0  0  0  0  0  0  0  0  0  0
  -15.1212  -25.6654  -24.9890 O   0  0  0  0  0  0  0  0  0  0  0  0
  6  5  1  1
  7  8  1  1
 13 14  1  0
 14 15  2  0
 11 16  1  0
 16 15  1  6
 15 17  1  0
 17 18  2  0
 18 19  1  0
  1 19  1  0
 14 20  1  0
 19 20  2  0
  2 21  1  6
  3 22  2  0
  4 23  1  0
 17 24  1  0
 23 24  1  0
 24 25  2  0
  8 26  1  1
  7 26  1  0
 26 12  1  1
  9 27  2  0
 12 28  1  0
 10 28  1  0
 27 29  1  0
 10 29  2  0
 30 29  1  6
  4 31  1  1
  4 32  1  0
  4 33  1  0
 12 34  1  1
 11 34  1  6
 13 34  1  0
 21 35  2  0
  3 35  1  0
  1 36  1  6
 21 36  1  0
 22 36  1  0
 23 37  2  0
 37 38  1  0
 25 38  1  0
  5 38  1  1
  9 39  1  0
 28 39  2  0
 13 40  2  0
M  END
$$$$
