7CL8_TES_A_505
     RDKit          3D

 49 52  0  0  0  0  0  0  0  0999 V2000
   11.7498   -6.9424  -23.3561 C   0  0  1  0  0  0  0  0  0  0  0  0
   11.3285   -6.0741  -22.1675 C   0  0  1  0  0  0  0  0  0  0  0  0
   12.4560   -5.1946  -21.7352 C   0  0  0  0  0  0  0  0  0  0  0  0
   12.5024   -4.7765  -20.5479 O   0  0  0  0  0  0  0  0  0  0  0  0
   13.4749   -4.7589  -22.6987 C   0  0  0  0  0  0  0  0  0  0  0  0
   13.4924   -5.2000  -23.9703 C   0  0  0  0  0  0  0  0  0  0  0  0
   14.4901   -4.5913  -24.9282 C   0  0  1  0  0  0  0  0  0  0  0  0
   15.0825   -5.6504  -25.8533 C   0  0  2  0  0  0  0  0  0  0  0  0
   13.9719   -6.4147  -26.5929 C   0  0  2  0  0  0  0  0  0  0  0  0
   13.0408   -7.1289  -25.5543 C   0  0  1  0  0  0  0  0  0  0  0  0
   12.3946   -6.1235  -24.5220 C   0  0  1  0  0  0  0  0  0  0  0  0
   12.0076   -8.0830  -26.2405 C   0  0  1  0  0  0  0  0  0  0  0  0
   12.6470   -9.0406  -27.2751 C   0  0  2  0  0  0  0  0  0  0  0  0
   13.5008   -8.2647  -28.3004 C   0  0  1  0  0  0  0  0  0  0  0  0
   14.5728   -7.4878  -27.5250 C   0  0  1  0  0  0  0  0  0  0  0  0
   15.5913   -7.0733  -28.5819 C   0  0  1  0  0  0  0  0  0  0  0  0
   15.5859   -8.2384  -29.5889 C   0  0  1  0  0  0  0  0  0  0  0  0
   14.3978   -9.1511  -29.1908 C   0  0  2  0  0  0  0  0  0  0  0  0
   13.7233   -9.7183  -30.2906 O   0  0  0  0  0  0  0  0  0  0  0  0
   12.5869   -7.3623  -29.1904 C   0  0  1  0  0  0  0  0  0  0  0  0
   11.3091   -5.2374  -25.1858 C   0  0  2  0  0  0  0  0  0  0  0  0
   12.4740   -7.7015  -22.9845 H   0  0  0  0  0  0  0  0  0  0  0  0
   10.8497   -7.4893  -23.7084 H   0  0  0  0  0  0  0  0  0  0  0  0
   10.4553   -5.4442  -22.4389 H   0  0  0  0  0  0  0  0  0  0  0  0
   11.0247   -6.7334  -21.3255 H   0  0  0  0  0  0  0  0  0  0  0  0
   14.2259   -4.0566  -22.3555 H   0  0  0  0  0  0  0  0  0  0  0  0
   13.9808   -3.8100  -25.5326 H   0  0  0  0  0  0  0  0  0  0  0  0
   15.3280   -4.1006  -24.3854 H   0  0  0  0  0  0  0  0  0  0  0  0
   15.7071   -6.3540  -25.2585 H   0  0  0  0  0  0  0  0  0  0  0  0
   15.7443   -5.1403  -26.5860 H   0  0  0  0  0  0  0  0  0  0  0  0
   13.4078   -5.6776  -27.1969 H   0  0  0  0  0  0  0  0  0  0  0  0
   13.7061   -7.7995  -24.9614 H   0  0  0  0  0  0  0  0  0  0  0  0
   11.5189   -8.7185  -25.4740 H   0  0  0  0  0  0  0  0  0  0  0  0
   11.2030   -7.5039  -26.7333 H   0  0  0  0  0  0  0  0  0  0  0  0
   11.8474   -9.6090  -27.7982 H   0  0  0  0  0  0  0  0  0  0  0  0
   13.2756   -9.7813  -26.7326 H   0  0  0  0  0  0  0  0  0  0  0  0
   15.1171   -8.2061  -26.8618 H   0  0  0  0  0  0  0  0  0  0  0  0
   15.2805   -6.1264  -29.0748 H   0  0  0  0  0  0  0  0  0  0  0  0
   16.6007   -6.9377  -28.1357 H   0  0  0  0  0  0  0  0  0  0  0  0
   15.4792   -7.8365  -30.6196 H   0  0  0  0  0  0  0  0  0  0  0  0
   16.5392   -8.8077  -29.5313 H   0  0  0  0  0  0  0  0  0  0  0  0
   14.8032   -9.9893  -28.5796 H   0  0  0  0  0  0  0  0  0  0  0  0
   13.9721   -9.2204  -31.1113 H   0  0  0  0  0  0  0  0  0  0  0  0
   13.1779   -6.7674  -29.9170 H   0  0  0  0  0  0  0  0  0  0  0  0
   11.8750   -7.9919  -29.7655 H   0  0  0  0  0  0  0  0  0  0  0  0
   11.9740   -6.6508  -28.6067 H   0  0  0  0  0  0  0  0  0  0  0  0
   11.6608   -4.8206  -26.1523 H   0  0  0  0  0  0  0  0  0  0  0  0
   11.0064   -4.3964  -24.5315 H   0  0  0  0  0  0  0  0  0  0  0  0
   10.3929   -5.8290  -25.3960 H   0  0  0  0  0  0  0  0  0  0  0  0
  1  2  1  0
  2  3  1  0
  3  4  2  0
  3  5  1  0
  5  6  2  0
  6  7  1  0
  7  8  1  0
  9  8  1  0
  9 10  1  0
  1 11  1  0
 11  6  1  1
 10 11  1  0
 10 12  1  0
 12 13  1  0
 13 14  1  0
  9 15  1  0
 14 15  1  0
 15 16  1  0
 16 17  1  0
 14 18  1  6
 17 18  1  0
 18 19  1  0
 14 20  1  0
 11 21  1  0
  1 22  1  1
  1 23  1  0
  2 24  1  6
  2 25  1  0
  5 26  1  0
  7 27  1  6
  7 28  1  0
  8 29  1  1
  8 30  1  0
  9 31  1  6
 10 32  1  1
 12 33  1  1
 12 34  1  0
 13 35  1  6
 13 36  1  0
 15 37  1  1
 16 38  1  6
 16 39  1  0
 17 40  1  6
 17 41  1  0
 18 42  1  1
 19 43  1  0
 20 44  1  6
 20 45  1  0
 20 46  1  0
 21 47  1  6
 21 48  1  0
 21 49  1  0
M  END
