7RSV_7IQ_B_901
     RDKit          3D

 20 23  0  0  0  0  0  0  0  0999 V2000
   16.1464  -35.8000   24.6578 C   0  0  0  0  0  0  0  0  0  0  0  0
   16.1582  -34.3035   17.9787 C   0  0  2  0  0  0  0  0  0  0  0  0
   17.1007  -33.8387   25.2050 C   0  0  0  0  0  0  0  0  0  0  0  0
   16.5090  -32.5692   19.6831 C   0  0  0  0  0  0  0  0  0  0  0  0
   16.6013  -33.2093   23.9499 C   0  0  0  0  0  0  0  0  0  0  0  0
   16.3345  -33.7658   21.5183 C   0  0  0  0  0  0  0  0  0  0  0  0
   16.5588  -32.4643   21.0557 C   0  0  0  0  0  0  0  0  0  0  0  0
   14.5364  -35.9273   22.7998 C   0  0  0  0  0  0  0  0  0  0  0  0
   16.9773  -35.5821   17.7704 C   0  0  0  0  0  0  0  0  0  0  0  0
   17.7094  -35.3192   16.4726 C   0  0  0  0  0  0  0  0  0  0  0  0
   18.0142  -33.8210   16.6038 C   0  0  0  0  0  0  0  0  0  0  0  0
   16.6181  -33.3231   16.9811 C   0  0  2  0  0  0  0  0  0  0  0  0
   15.9405  -35.5506   23.1795 C   0  0  1  0  0  0  0  0  0  0  0  0
   16.6754  -31.5209   18.6749 C   0  0  0  0  0  0  0  0  0  0  0  0
   16.2707  -33.8492   19.3500 N   0  0  0  0  0  0  0  0  0  0  0  0
   16.1686  -34.5537   20.4591 N   0  0  0  0  0  0  0  0  0  0  0  0
   16.5682  -31.9447   17.3107 N   0  0  0  0  0  0  0  0  0  0  0  0
   16.2894  -34.1876   22.8965 N   0  0  0  0  0  0  0  0  0  0  0  0
   16.8957  -30.3381   18.9891 O   0  0  0  0  0  0  0  0  0  0  0  0
   17.3513  -35.1977   25.0432 O   0  0  0  0  0  0  0  0  0  0  0  0
  3  5  1  0
  4  7  2  0
  6  7  1  0
  2  9  1  1
  9 10  1  0
 10 11  1  0
 12 11  1  1
  2 12  1  0
 13  8  1  1
  1 13  1  0
  4 14  1  0
  2 15  1  0
  4 15  1  0
 15 16  1  0
  6 16  2  0
 12 17  1  0
 14 17  1  0
  6 18  1  0
  5 18  1  0
 13 18  1  0
 14 19  2  0
  3 20  1  0
  1 20  1  0
M  END
$$$$
