7B94_ANP_B_401
     RDKit          3D

 48 50  0  0  0  0  0  0  0  0999 V2000
  -27.1467    2.0520   -1.7445 P   0  0  2  0  0  5  0  0  0  0  0  0
  -26.8397    3.4835   -1.3708 O   0  0  0  0  0  0  0  0  0  0  0  0
  -25.8852    1.4560   -2.7002 O   0  0  0  0  0  0  0  0  0  0  0  0
  -28.5942    2.0121   -2.6229 O   0  0  0  0  0  0  0  0  0  0  0  0
  -28.7415    0.0985   -0.3789 P   0  0  2  0  0  5  0  0  0  0  0  0
  -29.1064   -0.1431   -1.8277 O   0  0  0  0  0  0  0  0  0  0  0  0
  -30.0201    0.9139    0.3710 O   0  0  0  0  0  0  0  0  0  0  0  0
  -27.2866    1.0871   -0.2789 N   0  0  0  0  0  0  0  0  0  0  0  0
  -30.0803   -2.0817    0.6791 P   0  0  2  0  0  5  0  0  0  0  0  0
  -30.2873   -3.2783   -0.2272 O   0  0  0  0  0  0  0  0  0  0  0  0
  -31.2438   -0.9036    0.3192 O   0  0  0  0  0  0  0  0  0  0  0  0
  -28.5454   -1.3914    0.4258 O   0  0  0  0  0  0  0  0  0  0  0  0
  -30.2223   -2.5301    2.3192 O   0  0  0  0  0  0  0  0  0  0  0  0
  -31.5483   -2.3101    2.7391 C   0  0  1  0  0  0  0  0  0  0  0  0
  -31.5550   -1.8514    4.2006 C   0  0  1  0  0  0  0  0  0  0  0  0
  -32.8769   -1.5929    4.6121 O   0  0  0  0  0  0  0  0  0  0  0  0
  -30.9619   -2.8906    5.1465 C   0  0  1  0  0  0  0  0  0  0  0  0
  -29.5654   -2.7475    5.2448 O   0  0  0  0  0  0  0  0  0  0  0  0
  -31.6751   -2.5882    6.4513 C   0  0  1  0  0  0  0  0  0  0  0  0
  -30.8835   -1.8249    7.3338 O   0  0  0  0  0  0  0  0  0  0  0  0
  -32.9263   -1.8098    6.0063 C   0  0  2  0  0  0  0  0  0  0  0  0
  -34.1534   -2.5395    6.3396 N   0  0  0  0  0  0  0  0  0  0  0  0
  -35.1061   -2.1754    7.2374 C   0  0  0  0  0  0  0  0  0  0  0  0
  -36.1657   -3.0297    7.2791 N   0  0  0  0  0  0  0  0  0  0  0  0
  -35.8371   -3.9533    6.3547 C   0  0  0  0  0  0  0  0  0  0  0  0
  -36.5497   -5.0669    5.9260 C   0  0  0  0  0  0  0  0  0  0  0  0
  -37.8198   -5.4074    6.4815 N   0  0  0  0  0  0  0  0  0  0  0  0
  -36.0000   -5.8277    4.9328 N   0  0  0  0  0  0  0  0  0  0  0  0
  -34.7905   -5.5049    4.3726 C   0  0  0  0  0  0  0  0  0  0  0  0
  -34.1001   -4.4051    4.7997 N   0  0  0  0  0  0  0  0  0  0  0  0
  -34.6442   -3.6579    5.7893 C   0  0  0  0  0  0  0  0  0  0  0  0
  -26.0522    0.4810   -2.7524 H   0  0  0  0  0  0  0  0  0  0  0  0
  -29.1845    2.6656   -2.1745 H   0  0  0  0  0  0  0  0  0  0  0  0
  -29.6844    1.8298    0.5257 H   0  0  0  0  0  0  0  0  0  0  0  0
  -26.4664    0.4421   -0.2851 H   0  0  0  0  0  0  0  0  0  0  0  0
  -32.1028   -1.3927    0.2682 H   0  0  0  0  0  0  0  0  0  0  0  0
  -32.0365   -1.5268    2.1172 H   0  0  0  0  0  0  0  0  0  0  0  0
  -32.1454   -3.2487    2.6817 H   0  0  0  0  0  0  0  0  0  0  0  0
  -30.9731   -0.9013    4.2726 H   0  0  0  0  0  0  0  0  0  0  0  0
  -31.2235   -3.9241    4.8109 H   0  0  0  0  0  0  0  0  0  0  0  0
  -29.4061   -1.9708    5.8449 H   0  0  0  0  0  0  0  0  0  0  0  0
  -31.9414   -3.5397    6.9624 H   0  0  0  0  0  0  0  0  0  0  0  0
  -30.1351   -1.4268    6.8139 H   0  0  0  0  0  0  0  0  0  0  0  0
  -32.9513   -0.8146    6.5063 H   0  0  0  0  0  0  0  0  0  0  0  0
  -35.0390   -1.2895    7.8557 H   0  0  0  0  0  0  0  0  0  0  0  0
  -38.2111   -4.8880    7.3008 H   0  0  0  0  0  0  0  0  0  0  0  0
  -38.3827   -6.1809    6.0641 H   0  0  0  0  0  0  0  0  0  0  0  0
  -34.3849   -6.1190    3.5814 H   0  0  0  0  0  0  0  0  0  0  0  0
  1  2  2  0
  1  3  1  6
  1  4  1  0
  5  6  2  0
  5  7  1  1
  1  8  1  0
  5  8  1  0
  9 10  2  0
  9 11  1  6
  5 12  1  0
  9 12  1  0
  9 13  1  0
 13 14  1  0
 15 14  1  0
 15 16  1  0
 15 17  1  0
 17 18  1  0
 17 19  1  0
 19 20  1  0
 16 21  1  0
 19 21  1  0
 21 22  1  0
 22 23  1  0
 23 24  2  0
 24 25  1  0
 25 26  2  0
 26 27  1  0
 26 28  1  0
 28 29  2  0
 29 30  1  0
 22 31  1  0
 25 31  1  0
 30 31  2  0
  3 32  1  0
  4 33  1  0
  7 34  1  0
  8 35  1  0
 11 36  1  0
 14 37  1  6
 14 38  1  0
 15 39  1  6
 17 40  1  6
 18 41  1  0
 19 42  1  1
 20 43  1  0
 21 44  1  1
 23 45  1  0
 27 46  1  0
 27 47  1  0
 29 48  1  0
M  END
