8DHG_T78_A_403
     RDKit          3D

 54 56  0  0  0  0  0  0  0  0999 V2000
   35.9085  -16.6976   11.5440 C   0  0  2  0  0  0  0  0  0  0  0  0
   36.3417  -16.1547   12.9001 C   0  0  2  0  0  0  0  0  0  0  0  0
   35.0870  -17.9036   14.2154 C   0  0  0  0  0  0  0  0  0  0  0  0
   37.1112  -17.6843   14.7843 C   0  0  0  0  0  0  0  0  0  0  0  0
   34.4103  -19.6982   15.8353 C   0  0  0  0  0  0  0  0  0  0  0  0
   34.4985  -21.9592   18.7117 O   0  0  0  0  0  0  0  0  0  0  0  0
   35.8603  -21.9425   19.1392 C   0  0  1  0  0  0  0  0  0  0  0  0
   35.9849  -21.1725   20.4594 C   0  0  2  0  0  0  0  0  0  0  0  0
   36.3462  -23.3884   19.2915 C   0  0  2  0  0  0  0  0  0  0  0  0
   32.2787  -20.8286   15.9759 C   0  0  0  0  0  0  0  0  0  0  0  0
   33.1263  -19.9359   15.3185 C   0  0  0  0  0  0  0  0  0  0  0  0
   30.9746  -24.0356   21.0647 C   0  0  0  0  0  0  0  0  0  0  0  0
   30.5435  -22.7939   21.7961 C   0  0  1  0  0  0  0  0  0  0  0  0
   30.7237  -25.2962   21.6253 C   0  0  0  0  0  0  0  0  0  0  0  0
   31.1305  -26.4458   20.9494 C   0  0  0  0  0  0  0  0  0  0  0  0
   32.0491  -25.1418   19.1889 C   0  0  0  0  0  0  0  0  0  0  0  0
   36.1867  -17.1825   13.9310 N   0  0  0  0  0  0  0  0  0  0  0  0
   33.9665  -17.7264   13.6656 O   0  0  0  0  0  0  0  0  0  0  0  0
   35.3261  -18.7949   15.1980 N   0  0  0  0  0  0  0  0  0  0  0  0
   36.5872  -18.6461   15.5761 N   0  0  0  0  0  0  0  0  0  0  0  0
   38.5204  -17.1911   14.9214 C   0  0  1  0  0  0  0  0  0  0  0  0
   38.5228  -15.8417   15.2976 O   0  0  0  0  0  0  0  0  0  0  0  0
   34.8181  -20.3800   16.9389 N   0  0  0  0  0  0  0  0  0  0  0  0
   34.0140  -21.2588   17.5995 C   0  0  0  0  0  0  0  0  0  0  0  0
   35.2684  -24.2508   19.3956 F   0  0  0  0  0  0  0  0  0  0  0  0
   37.1393  -23.5121   20.4188 F   0  0  0  0  0  0  0  0  0  0  0  0
   37.0945  -23.7421   18.1831 F   0  0  0  0  0  0  0  0  0  0  0  0
   32.7029  -21.4856   17.1402 C   0  0  0  0  0  0  0  0  0  0  0  0
   32.7133  -19.3602   14.1621 F   0  0  0  0  0  0  0  0  0  0  0  0
   31.7890  -22.4191   17.8361 C   0  0  0  0  0  0  0  0  0  0  0  0
   30.8557  -22.9723   17.1922 O   0  0  0  0  0  0  0  0  0  0  0  0
   31.9316  -22.6723   19.2418 N   0  0  0  0  0  0  0  0  0  0  0  0
   31.6405  -23.9519   19.8238 C   0  0  0  0  0  0  0  0  0  0  0  0
   31.7830  -26.3442   19.7635 N   0  0  0  0  0  0  0  0  0  0  0  0
   32.9707  -25.1167   17.6928 Cl  0  0  0  0  0  0  0  0  0  0  0  0
   35.8013  -17.8020   11.5924 H   0  0  0  0  0  0  0  0  0  0  0  0
   36.6603  -16.4383   10.7689 H   0  0  0  0  0  0  0  0  0  0  0  0
   34.9314  -16.2541   11.2588 H   0  0  0  0  0  0  0  0  0  0  0  0
   35.7222  -15.2680   13.1557 H   0  0  0  0  0  0  0  0  0  0  0  0
   37.3985  -15.8183   12.8476 H   0  0  0  0  0  0  0  0  0  0  0  0
   36.4900  -21.4471   18.3668 H   0  0  0  0  0  0  0  0  0  0  0  0
   36.4933  -21.7947   21.2260 H   0  0  0  0  0  0  0  0  0  0  0  0
   34.9814  -20.8790   20.8347 H   0  0  0  0  0  0  0  0  0  0  0  0
   36.5874  -20.2524   20.3107 H   0  0  0  0  0  0  0  0  0  0  0  0
   31.2870  -21.0037   15.5770 H   0  0  0  0  0  0  0  0  0  0  0  0
   31.4384  -22.2070   22.0910 H   0  0  0  0  0  0  0  0  0  0  0  0
   29.8965  -22.1719   21.1420 H   0  0  0  0  0  0  0  0  0  0  0  0
   29.9654  -23.0411   22.7118 H   0  0  0  0  0  0  0  0  0  0  0  0
   30.2159  -25.3907   22.5771 H   0  0  0  0  0  0  0  0  0  0  0  0
   30.9374  -27.4217   21.3746 H   0  0  0  0  0  0  0  0  0  0  0  0
   39.0342  -17.7804   15.7095 H   0  0  0  0  0  0  0  0  0  0  0  0
   39.0872  -17.3387   13.9758 H   0  0  0  0  0  0  0  0  0  0  0  0
   37.8408  -15.3880   14.7369 H   0  0  0  0  0  0  0  0  0  0  0  0
   32.0956  -21.8620   19.8808 H   0  0  0  0  0  0  0  0  0  0  0  0
  1  2  1  0
  6  7  1  0
  7  8  1  0
  7  9  1  0
 10 11  2  0
  5 11  1  0
 12 13  1  0
 12 14  2  0
 14 15  1  0
  3 17  1  0
  2 17  1  0
  4 17  1  0
  3 18  2  0
  3 19  1  0
  5 19  1  0
 19 20  1  0
  4 20  2  0
  4 21  1  0
 21 22  1  0
  5 23  2  0
 23 24  1  0
  6 24  1  0
  9 25  1  1
  9 26  1  0
  9 27  1  0
 10 28  1  0
 24 28  2  0
 11 29  1  0
 28 30  1  0
 30 31  2  0
 30 32  1  0
 12 33  1  0
 32 33  1  0
 16 33  2  0
 15 34  2  0
 16 34  1  0
 16 35  1  0
  1 36  1  1
  1 37  1  0
  1 38  1  0
  2 39  1  1
  2 40  1  0
  7 41  1  6
  8 42  1  1
  8 43  1  0
  8 44  1  0
 10 45  1  0
 13 46  1  1
 13 47  1  0
 13 48  1  0
 14 49  1  0
 15 50  1  0
 21 51  1  1
 21 52  1  0
 22 53  1  0
 32 54  1  0
M  END
