6YMS_OZH_E_409
     RDKit          3D

 35 36  0  0  0  0  0  0  0  0999 V2000
   37.3882   33.4114   -5.7264 O   0  0  0  0  0  0  0  0  0  0  0  0
   35.3621   41.7349   -6.6777 O   0  0  0  0  0  0  0  0  0  0  0  0
   43.1887   34.1139   -5.1061 C   0  0  0  0  0  0  0  0  0  0  0  0
   41.8984   34.8342   -5.2624 C   0  0  1  0  0  0  0  0  0  0  0  0
   42.0510   36.0957   -6.1119 C   0  0  0  0  0  0  0  0  0  0  0  0
   36.8896   40.8201   -3.3728 C   0  0  1  0  0  0  0  0  0  0  0  0
   39.0250   35.2144   -4.5024 N   0  0  0  0  0  0  0  0  0  0  0  0
   37.7157   36.6807   -2.9609 C   0  0  0  0  0  0  0  0  0  0  0  0
   38.1106   36.2855   -4.3664 C   0  0  0  0  0  0  0  0  0  0  0  0
   39.4058   34.7496   -5.8743 C   0  0  1  0  0  0  0  0  0  0  0  0
   40.7051   34.0836   -5.6776 C   0  0  0  0  0  0  0  0  0  0  0  0
   37.6219   36.9105   -5.3425 O   0  0  0  0  0  0  0  0  0  0  0  0
   37.5072   41.8682   -2.5239 C   0  0  0  0  0  0  0  0  0  0  0  0
   36.7154   43.1037   -2.3403 C   0  0  0  0  0  0  0  0  0  0  0  0
   36.5691   45.3263   -1.3709 C   0  0  0  0  0  0  0  0  0  0  0  0
   37.2487   44.1597   -1.6071 C   0  0  0  0  0  0  0  0  0  0  0  0
   35.2915   45.4406   -1.8955 C   0  0  0  0  0  0  0  0  0  0  0  0
   34.3828   42.1476   -8.8583 C   0  0  0  0  0  0  0  0  0  0  0  0
   33.3323   42.4097   -9.7075 C   0  0  0  0  0  0  0  0  0  0  0  0
   34.2621   41.5974   -7.5050 C   0  0  0  0  0  0  0  0  0  0  0  0
   35.4613   41.1930   -5.4317 C   0  0  0  0  0  0  0  0  0  0  0  0
   35.4425   43.2884   -2.8296 C   0  0  0  0  0  0  0  0  0  0  0  0
   34.7147   44.4287   -2.6276 C   0  0  0  0  0  0  0  0  0  0  0  0
   38.2791   34.0013   -6.3968 C   0  0  0  0  0  0  0  0  0  0  0  0
   38.9946   39.4428   -2.5066 O   0  0  0  0  0  0  0  0  0  0  0  0
   33.5672   42.9203  -10.9680 C   0  0  0  0  0  0  0  0  0  0  0  0
   34.8504   43.1868  -11.4245 C   0  0  0  0  0  0  0  0  0  0  0  0
   35.8987   42.9298  -10.5876 C   0  0  0  0  0  0  0  0  0  0  0  0
   38.5398   39.2087   -5.0366 O   0  0  0  0  0  0  0  0  0  0  0  0
   34.5525   40.5860   -4.8568 O   0  0  0  0  0  0  0  0  0  0  0  0
   35.6510   42.4215   -9.3357 C   0  0  0  0  0  0  0  0  0  0  0  0
   36.9729   37.8839   -3.0637 N   0  0  0  0  0  0  0  0  0  0  0  0
   36.7044   41.3365   -4.7407 N   0  0  0  0  0  0  0  0  0  0  0  0
   38.0990   33.8797   -7.8002 O   0  0  0  0  0  0  0  0  0  0  0  0
   37.8236   39.3078   -3.5146 P   0  0  2  0  0  0  0  0  0  0  0  0
  4  3  1  6
  4  5  1  0
  7  9  1  0
  8  9  1  0
  7 10  1  0
 10 11  1  1
  4 11  1  0
  9 12  2  0
  6 13  1  1
 13 14  1  0
 14 16  1  0
 15 16  2  0
 15 17  1  0
 18 19  2  0
  2 20  1  0
 18 20  1  0
  2 21  1  0
 14 22  2  0
 22 23  1  0
 17 23  2  0
  1 24  2  0
 10 24  1  0
 19 26  1  0
 26 27  2  0
 27 28  1  0
 21 30  2  0
 18 31  1  0
 28 31  2  0
  8 32  1  0
  6 33  1  0
 21 33  1  0
 24 34  1  0
 25 35  2  0
 32 35  1  0
 35 29  1  6
  6 35  1  0
M  END
$$$$
