7T2I_E9F_A_1705
     RDKit          3D

 29 33  0  0  0  0  0  0  0  0999 V2000
 -127.1670 -171.8190  112.3430 C   0  0  2  0  0  0  0  0  0  0  0  0
 -125.5330 -170.6510  113.9210 C   0  0  0  0  0  0  0  0  0  0  0  0
 -129.8550 -171.8160  115.5260 C   0  0  0  0  0  0  0  0  0  0  0  0
 -133.3650 -173.0990  116.0170 C   0  0  0  0  0  0  0  0  0  0  0  0
 -132.9690 -172.8330  113.6910 C   0  0  0  0  0  0  0  0  0  0  0  0
 -131.1680 -172.0800  112.6150 C   0  0  0  0  0  0  0  0  0  0  0  0
 -125.2850 -169.2720  117.4230 C   0  0  0  0  0  0  0  0  0  0  0  0
 -127.7240 -170.6280  118.4040 C   0  0  0  0  0  0  0  0  0  0  0  0
 -127.2090 -171.4870  119.5300 C   0  0  0  0  0  0  0  0  0  0  0  0
 -128.5020 -170.6620  119.7060 C   0  0  0  0  0  0  0  0  0  0  0  0
 -128.1530 -171.0660  117.0000 C   0  0  0  0  0  0  0  0  0  0  0  0
 -127.7190 -171.5270  114.7910 C   0  0  0  0  0  0  0  0  0  0  0  0
 -126.9540 -173.2710  111.9850 C   0  0  0  0  0  0  0  0  0  0  0  0
 -126.2320 -171.2560  111.2680 C   0  0  0  0  0  0  0  0  0  0  0  0
 -124.7410 -170.2740  112.6790 C   0  0  0  0  0  0  0  0  0  0  0  0
 -131.2810 -172.2590  115.2430 C   0  0  0  0  0  0  0  0  0  0  0  0
 -132.0870 -172.6500  116.3380 C   0  0  0  0  0  0  0  0  0  0  0  0
 -131.7150 -172.3650  113.9000 C   0  0  0  0  0  0  0  0  0  0  0  0
 -132.1150 -172.3970  111.6720 C   0  0  0  0  0  0  0  0  0  0  0  0
 -129.4740 -171.4750  116.8240 C   0  0  0  0  0  0  0  0  0  0  0  0
 -127.0970 -168.1880  119.4820 N   0  0  0  0  0  0  0  0  0  0  0  0
 -127.3100 -171.1100  115.9780 N   0  0  0  0  0  0  0  0  0  0  0  0
 -126.7410 -171.5430  113.7180 N   0  0  0  0  0  0  0  0  0  0  0  0
 -128.9750 -171.8880  114.5260 N   0  0  0  0  0  0  0  0  0  0  0  0
 -133.7680 -173.1900  114.7400 N   0  0  0  0  0  0  0  0  0  0  0  0
 -133.1910 -172.8380  112.3450 N   0  0  0  0  0  0  0  0  0  0  0  0
 -124.9340 -171.2730  111.7170 O   0  0  0  0  0  0  0  0  0  0  0  0
 -127.3980 -168.0640  117.2870 O   0  0  0  0  0  0  0  0  0  0  0  0
 -126.8880 -169.0160  118.2320 S   0  0  1  0  0  0  0  0  0  0  0  0
  8  9  1  0
  8 10  1  0
  9 10  1  0
  8 11  1  0
  1 13  1  1
  1 14  1  0
  2 15  1  0
  3 16  1  0
 16 17  1  0
  4 17  2  0
  6 18  1  0
  5 18  1  0
 16 18  2  0
  6 19  2  0
  3 20  2  0
 11 20  1  0
 12 22  1  0
 11 22  2  0
  1 23  1  0
  2 23  1  0
 12 23  1  0
 12 24  2  0
  3 24  1  0
  5 25  2  0
  4 25  1  0
 19 26  1  0
  5 26  1  0
 14 27  1  0
 15 27  1  0
 28 29  2  0
 29  7  1  6
  8 29  1  0
 21 29  2  0
M  END
$$$$
