6VTA_AKN_A_302
     RDKit          3D

 40 42  0  0  0  0  0  0  0  0999 V2000
   93.1374   22.1062    0.4611 C   0  0  1  0  0  0  0  0  0  0  0  0
   94.4852   21.6684   -0.0196 C   0  0  1  0  0  0  0  0  0  0  0  0
   95.3968   22.8715   -0.1390 C   0  0  2  0  0  0  0  0  0  0  0  0
   94.7325   23.8928   -1.0329 C   0  0  1  0  0  0  0  0  0  0  0  0
   93.3109   24.1086   -0.6245 C   0  0  1  0  0  0  0  0  0  0  0  0
   92.4281   23.7095   -1.7854 C   0  0  0  0  0  0  0  0  0  0  0  0
   95.4363   25.1019   -0.9299 O   0  0  0  0  0  0  0  0  0  0  0  0
   92.6846   21.4352    1.5712 O   0  0  0  0  0  0  0  0  0  0  0  0
   93.0121   23.4890    0.5621 O   0  0  0  0  0  0  0  0  0  0  0  0
   91.7128   24.8232   -2.3425 N   0  0  0  0  0  0  0  0  0  0  0  0
   90.8210   20.3576    4.3218 C   0  0  2  0  0  0  0  0  0  0  0  0
   90.2570   20.1139    5.6360 N   0  0  0  0  0  0  0  0  0  0  0  0
   90.9550   21.8368    4.0453 C   0  0  0  0  0  0  0  0  0  0  0  0
   90.7693   22.2038    2.6163 C   0  0  2  0  0  0  0  0  0  0  0  0
   89.4174   22.6238    2.2989 N   0  0  0  0  0  0  0  0  0  0  0  0
   91.3293   21.1924    1.6480 C   0  0  2  0  0  0  0  0  0  0  0  0
   90.9983   19.7756    2.0129 C   0  0  2  0  0  0  0  0  0  0  0  0
   90.5454   19.0224    0.9614 O   0  0  0  0  0  0  0  0  0  0  0  0
   90.0318   19.7579    3.1941 C   0  0  1  0  0  0  0  0  0  0  0  0
   89.6436   18.4926    3.5254 O   0  0  0  0  0  0  0  0  0  0  0  0
   88.7696   17.8327    2.7089 C   0  0  2  0  0  0  0  0  0  0  0  0
   88.3221   16.4788    3.0424 C   0  0  2  0  0  0  0  0  0  0  0  0
   87.7837   16.2631    4.2899 O   0  0  0  0  0  0  0  0  0  0  0  0
   89.3024   15.3846    2.6442 C   0  0  1  0  0  0  0  0  0  0  0  0
   88.7781   14.0938    3.0522 N   0  0  0  0  0  0  0  0  0  0  0  0
   89.4234   15.4447    1.1265 C   0  0  2  0  0  0  0  0  0  0  0  0
   90.5517   14.7663    0.6603 O   0  0  0  0  0  0  0  0  0  0  0  0
   89.2905   16.8384    0.6126 C   0  0  2  0  0  0  0  0  0  0  0  0
   89.2983   17.8716    1.4467 O   0  0  0  0  0  0  0  0  0  0  0  0
   88.1156   16.8938   -0.3659 C   0  0  0  0  0  0  0  0  0  0  0  0
   88.1765   18.0467   -1.1457 O   0  0  0  0  0  0  0  0  0  0  0  0
   95.0496   20.6735    0.7752 O   0  0  0  0  0  0  0  0  0  0  0  0
   96.6000   22.5178   -0.7895 O   0  0  0  0  0  0  0  0  0  0  0  0
   84.2550   20.0962    6.8546 N   0  0  0  0  0  0  0  0  0  0  0  0
   88.9239   19.6864    5.7708 C   0  0  0  0  0  0  0  0  0  0  0  0
   88.6023   18.4817    6.0538 O   0  0  0  0  0  0  0  0  0  0  0  0
   87.7881   20.6287    5.5884 C   0  0  2  0  0  0  0  0  0  0  0  0
   86.6645   20.0668    6.4685 C   0  0  0  0  0  0  0  0  0  0  0  0
   85.3148   20.5354    5.9651 C   0  0  0  0  0  0  0  0  0  0  0  0
   87.3500   20.6432    4.2629 O   0  0  0  0  0  0  0  0  0  0  0  0
  1  2  1  0
  2  3  1  0
  3  4  1  0
  4  5  1  0
  5  6  1  6
  4  7  1  1
  1  8  1  1
  5  9  1  0
  1  9  1  0
  6 10  1  0
 11 12  1  1
 11 13  1  0
 13 14  1  0
 14 15  1  6
 14 16  1  0
 16  8  1  1
 16 17  1  0
 17 18  1  6
 11 19  1  0
 17 19  1  0
 19 20  1  1
 21 20  1  1
 21 22  1  0
 22 23  1  1
 22 24  1  0
 24 25  1  6
 24 26  1  0
 26 27  1  1
 26 28  1  0
 21 29  1  0
 28 29  1  0
 28 30  1  1
 30 31  1  0
  2 32  1  1
  3 33  1  6
 12 35  1  0
 35 36  2  0
 35 37  1  0
 37 38  1  0
 38 39  1  0
 34 39  1  0
 37 40  1  6
M  END
$$$$
