
     RDKit          3D

 31 34  0  0  0  0  0  0  0  0999 V2000
   38.1019   54.7753   68.7534 C   0  0  0  0  0  0  0  0  0  0  0  0
   39.3481   54.7469   67.8556 C   0  0  1  0  0  0  0  0  0  0  0  0
   40.5967   54.7082   68.7503 C   0  0  0  0  0  0  0  0  0  0  0  0
   41.7909   54.1437   67.9836 C   0  0  1  0  0  0  0  0  0  0  0  0
   42.9759   54.1913   68.8495 N   0  0  0  0  0  0  0  0  0  0  0  0
   44.2636   54.1988   68.3082 C   0  0  0  0  0  0  0  0  0  0  0  0
   45.3480   53.9233   69.1559 C   0  0  0  0  0  0  0  0  0  0  0  0
   46.6567   53.8514   68.6670 C   0  0  0  0  0  0  0  0  0  0  0  0
   46.8945   54.0270   67.3090 C   0  0  0  0  0  0  0  0  0  0  0  0
   48.4999   53.9367   66.6995 Cl  0  0  0  0  0  0  0  0  0  0  0  0
   45.8340   54.2598   66.4406 C   0  0  0  0  0  0  0  0  0  0  0  0
   44.5274   54.3307   66.9386 C   0  0  0  0  0  0  0  0  0  0  0  0
   41.4007   52.7291   67.6008 C   0  0  0  0  0  0  0  0  0  0  0  0
   42.2664   51.6288   67.7529 C   0  0  0  0  0  0  0  0  0  0  0  0
   41.8820   50.3274   67.3930 C   0  0  0  0  0  0  0  0  0  0  0  0
   40.5914   50.1492   66.8793 C   0  0  0  0  0  0  0  0  0  0  0  0
   39.7239   51.2334   66.7094 C   0  0  0  0  0  0  0  0  0  0  0  0
   40.1266   52.5308   67.0387 C   0  0  0  0  0  0  0  0  0  0  0  0
   39.2698   53.6567   66.8585 N   0  0  0  0  0  0  0  0  0  0  0  0
   38.4072   53.8529   65.7737 C   0  0  0  0  0  0  0  0  0  0  0  0
   38.8174   53.3664   64.4033 C   0  0  0  0  0  0  0  0  0  0  0  0
   37.3477   54.4789   65.8803 O   0  0  0  0  0  0  0  0  0  0  0  0
   42.7988   49.1868   67.5648 C   0  0  0  0  0  0  0  0  0  0  0  0
   42.3361   47.9513   68.0498 C   0  0  0  0  0  0  0  0  0  0  0  0
   43.2037   46.8653   68.2148 C   0  0  0  0  0  0  0  0  0  0  0  0
   44.5584   46.9965   67.8964 C   0  0  0  0  0  0  0  0  0  0  0  0
   45.0360   48.2187   67.4136 C   0  0  0  0  0  0  0  0  0  0  0  0
   44.1637   49.3005   67.2505 C   0  0  0  0  0  0  0  0  0  0  0  0
   45.5184   45.8774   68.0532 C   0  0  0  0  0  0  0  0  0  0  0  0
   45.3089   44.7132   67.7667 O   0  0  0  0  0  0  0  0  0  0  0  0
   46.6993   46.2689   68.5637 O   0  0  0  0  0  0  0  0  0  0  0  0
  2  1  1  1
  2  3  1  0
  3  4  1  0
  4  5  1  1
  5  6  1  0
  6  7  4  0
  7  8  4  0
  8  9  4  0
  9 10  1  0
  9 11  4  0
 11 12  4  0
  6 12  4  0
  4 13  1  0
 13 14  4  0
 14 15  4  0
 15 16  4  0
 16 17  4  0
 13 18  4  0
 17 18  4  0
  2 19  1  0
 18 19  1  0
 19 20  1  0
 20 21  1  0
 20 22  2  0
 15 23  1  0
 23 24  4  0
 24 25  4  0
 25 26  4  0
 26 27  4  0
 27 28  4  0
 23 28  4  0
 26 29  1  0
 29 30  2  0
 29 31  1  0
M  END
