1SQ5_PAU_A_6001
     RDKit          3D

 15 14  0  0  0  0  0  0  0  0999 V2000
   27.8618   19.0423  -11.9000 O   0  0  0  0  0  0  0  0  0  0  0  0
   26.5835   17.1809  -11.1559 C   0  0  1  0  0  0  0  0  0  0  0  0
   27.1106   18.5574  -10.8333 C   0  0  0  0  0  0  0  0  0  0  0  0
   25.5898   17.1447  -12.2642 C   0  0  0  0  0  0  0  0  0  0  0  0
   27.8438   16.3616  -11.5288 C   0  0  0  0  0  0  0  0  0  0  0  0
   26.0288   16.4620   -9.9403 C   0  0  1  0  0  0  0  0  0  0  0  0
   24.9084   17.1936   -9.4600 O   0  0  0  0  0  0  0  0  0  0  0  0
   25.6353   15.0700  -10.1863 C   0  0  0  0  0  0  0  0  0  0  0  0
   26.2498   14.4671  -11.1352 O   0  0  0  0  0  0  0  0  0  0  0  0
   24.6620   14.3247   -9.5031 N   0  0  0  0  0  0  0  0  0  0  0  0
   24.3803   12.9500   -9.8045 C   0  0  0  0  0  0  0  0  0  0  0  0
   23.3972   12.3149   -8.8457 C   0  0  0  0  0  0  0  0  0  0  0  0
   23.8828   12.5852   -7.4449 C   0  0  0  0  0  0  0  0  0  0  0  0
   23.1700   12.0723   -6.3451 O   0  0  0  0  0  0  0  0  0  0  0  0
   24.9226   13.2665   -7.2275 O   0  0  0  0  0  0  0  0  0  0  0  0
  1  3  1  0
  2  3  1  0
  2  4  1  6
  2  5  1  0
  2  6  1  0
  6  7  1  6
  6  8  1  0
  8  9  2  0
  8 10  1  0
 10 11  1  0
 11 12  1  0
 12 13  1  0
 13 14  1  0
 13 15  2  0
M  END
$$$$
