1SQ5_PAU_A_6001
     RDKit          3D

 15 14  0  0  0  0  0  0  0  0999 V2000
   67.0534  -14.3608   16.9084 O   0  0  0  0  0  0  0  0  0  0  0  0
   67.0357  -16.7267   16.6746 C   0  0  1  0  0  0  0  0  0  0  0  0
   66.2949  -15.5021   17.1522 C   0  0  0  0  0  0  0  0  0  0  0  0
   66.4540  -18.0181   17.1341 C   0  0  0  0  0  0  0  0  0  0  0  0
   66.9893  -16.6288   15.1296 C   0  0  0  0  0  0  0  0  0  0  0  0
   68.5175  -16.6829   16.9976 C   0  0  1  0  0  0  0  0  0  0  0  0
   68.6708  -16.7666   18.4086 O   0  0  0  0  0  0  0  0  0  0  0  0
   69.3094  -17.7385   16.3560 C   0  0  0  0  0  0  0  0  0  0  0  0
   69.0645  -18.9384   16.7328 O   0  0  0  0  0  0  0  0  0  0  0  0
   70.3052  -17.5842   15.3792 N   0  0  0  0  0  0  0  0  0  0  0  0
   70.9993  -18.6951   14.7924 C   0  0  0  0  0  0  0  0  0  0  0  0
   72.4897  -18.6760   15.0517 C   0  0  0  0  0  0  0  0  0  0  0  0
   72.7479  -17.7025   16.1727 C   0  0  0  0  0  0  0  0  0  0  0  0
   73.4068  -18.1353   17.3386 O   0  0  0  0  0  0  0  0  0  0  0  0
   72.3858  -16.4961   16.0949 O   0  0  0  0  0  0  0  0  0  0  0  0
  1  3  1  0
  2  3  1  0
  2  4  1  6
  2  5  1  0
  2  6  1  0
  6  7  1  1
  6  8  1  0
  8  9  2  0
  8 10  1  0
 10 11  1  0
 11 12  1  0
 12 13  1  0
 13 14  1  0
 13 15  2  0
M  END
$$$$
