1SQ5_PAU_A_6001
     RDKit          3D

 15 14  0  0  0  0  0  0  0  0999 V2000
   91.1685   66.1678   21.0596 O   0  0  0  0  0  0  0  0  0  0  0  0
   92.8271   67.8586   21.2663 C   0  0  1  0  0  0  0  0  0  0  0  0
   91.3836   67.5396   20.9643 C   0  0  0  0  0  0  0  0  0  0  0  0
   93.6338   68.2515   20.0780 C   0  0  0  0  0  0  0  0  0  0  0  0
   92.7609   69.0215   22.2870 C   0  0  0  0  0  0  0  0  0  0  0  0
   93.5302   66.7484   22.0246 C   0  0  1  0  0  0  0  0  0  0  0  0
   94.8946   67.1128   22.1889 O   0  0  0  0  0  0  0  0  0  0  0  0
   92.9440   66.4433   23.3347 C   0  0  0  0  0  0  0  0  0  0  0  0
   93.0092   67.3726   24.2144 O   0  0  0  0  0  0  0  0  0  0  0  0
   92.3227   65.2503   23.7349 N   0  0  0  0  0  0  0  0  0  0  0  0
   91.7875   65.0548   25.0522 C   0  0  0  0  0  0  0  0  0  0  0  0
   90.3006   65.3199   25.1412 C   0  0  0  0  0  0  0  0  0  0  0  0
   89.8731   65.0630   26.5633 C   0  0  0  0  0  0  0  0  0  0  0  0
   88.5072   64.9156   26.8686 O   0  0  0  0  0  0  0  0  0  0  0  0
   90.7152   64.9753   27.4993 O   0  0  0  0  0  0  0  0  0  0  0  0
  1  3  1  0
  2  3  1  0
  2  4  1  6
  2  5  1  0
  2  6  1  0
  6  7  1  1
  6  8  1  0
  8  9  2  0
  8 10  1  0
 10 11  1  0
 11 12  1  0
 12 13  1  0
 13 14  1  0
 13 15  2  0
M  END
$$$$
