7SSM_B7L_A_4000
     RDKit          3D

 37 40  0  0  0  0  0  0  0  0999 V2000
   -3.6539   -3.4018   -2.9270 C   0  0  0  0  0  0  0  0  0  0  0  0
    2.6282    3.4499    1.5026 C   0  0  0  0  0  0  0  0  0  0  0  0
   -2.6648   -4.2815    0.6551 C   0  0  0  0  0  0  0  0  0  0  0  0
    2.7774    1.4138    0.7468 C   0  0  0  0  0  0  0  0  0  0  0  0
    5.1274    1.1917    0.6675 C   0  0  0  0  0  0  0  0  0  0  0  0
    4.9726   -0.1244    0.2124 C   0  0  0  0  0  0  0  0  0  0  0  0
    3.6704   -0.6356    0.0464 C   0  0  0  0  0  0  0  0  0  0  0  0
   -2.9319   -3.5125   -0.5795 C   0  0  0  0  0  0  0  0  0  0  0  0
   -3.4052   -4.1468   -1.7531 C   0  0  0  0  0  0  0  0  0  0  0  0
    1.8451    2.3666    1.1028 C   0  0  0  0  0  0  0  0  0  0  0  0
    0.3708    2.2934    1.1151 C   0  0  0  0  0  0  0  0  0  0  0  0
   -0.3319    1.2414    0.4380 N   0  0  0  0  0  0  0  0  0  0  0  0
   -0.2781    3.1865    1.7247 O   0  0  0  0  0  0  0  0  0  0  0  0
   -1.7791    1.0863    0.5764 C   0  0  0  0  0  0  0  0  0  0  0  0
   -2.2559   -0.1058   -0.1916 C   0  0  0  0  0  0  0  0  0  0  0  0
   -2.2953   -1.3287    0.3045 O   0  0  0  0  0  0  0  0  0  0  0  0
   -2.7274   -2.1271   -0.6427 C   0  0  0  0  0  0  0  0  0  0  0  0
   -2.9723   -1.4112   -1.7867 C   0  0  0  0  0  0  0  0  0  0  0  0
   -2.6702   -0.0963   -1.5192 C   0  0  0  0  0  0  0  0  0  0  0  0
   -3.4359   -2.0142   -2.9515 C   0  0  0  0  0  0  0  0  0  0  0  0
   -2.1967   -3.6391    1.7981 O   0  0  0  0  0  0  0  0  0  0  0  0
   -2.8588   -5.5269    0.6829 O   0  0  0  0  0  0  0  0  0  0  0  0
    3.9438    3.1484    1.3790 N   0  0  0  0  0  0  0  0  0  0  0  0
    4.0074    1.9107    0.9202 N   0  0  0  0  0  0  0  0  0  0  0  0
    2.5819    0.1411    0.3208 N   0  0  0  0  0  0  0  0  0  0  0  0
   -4.0148   -3.9036   -3.8154 H   0  0  0  0  0  0  0  0  0  0  0  0
    2.2598    4.4011    1.8633 H   0  0  0  0  0  0  0  0  0  0  0  0
    6.1107    1.6189    0.8183 H   0  0  0  0  0  0  0  0  0  0  0  0
    5.8375   -0.7385   -0.0020 H   0  0  0  0  0  0  0  0  0  0  0  0
    3.5300   -1.6514   -0.2981 H   0  0  0  0  0  0  0  0  0  0  0  0
   -3.5825   -5.2148   -1.7669 H   0  0  0  0  0  0  0  0  0  0  0  0
    0.1897    0.6038   -0.2031 H   0  0  0  0  0  0  0  0  0  0  0  0
   -2.2903    2.0002    0.2039 H   0  0  0  0  0  0  0  0  0  0  0  0
   -2.0358    0.9493    1.6487 H   0  0  0  0  0  0  0  0  0  0  0  0
   -2.7331    0.7502   -2.1905 H   0  0  0  0  0  0  0  0  0  0  0  0
   -3.6227   -1.4356   -3.8471 H   0  0  0  0  0  0  0  0  0  0  0  0
   -2.0110   -4.1584    2.6479 H   0  0  0  0  0  0  0  0  0  0  0  0
  5  6  2  0
  6  7  1  0
  3  8  1  0
  1  9  2  0
  8  9  1  0
  2 10  1  0
  4 10  2  0
 10 11  1  0
 11 12  1  0
 11 13  2  0
 12 14  1  0
 14 15  1  0
 15 16  1  0
 16 17  1  0
  8 17  2  0
 17 18  1  0
 15 19  2  0
 18 19  1  0
 18 20  2  0
  1 20  1  0
  3 21  1  0
  3 22  2  0
  2 23  2  0
 23 24  1  0
  4 24  1  0
  5 24  1  0
  4 25  1  0
  7 25  2  0
  1 26  1  0
  2 27  1  0
  5 28  1  0
  6 29  1  0
  7 30  1  0
  9 31  1  0
 12 32  1  0
 14 33  1  0
 14 34  1  0
 19 35  1  0
 20 36  1  0
 21 37  1  0
M  END
