8AIE_M7L_B_301
     RDKit          3D

 23 23  0  0  0  0  0  0  0  0999 V2000
   11.1496   -2.6516   17.0397 C   0  0  0  0  0  0  0  0  0  0  0  0
   10.5548   -2.5671   14.8164 C   0  0  0  0  0  0  0  0  0  0  0  0
   10.8995   -1.3019   17.2396 C   0  0  0  0  0  0  0  0  0  0  0  0
   10.1292    0.9478   16.3159 C   0  0  0  0  0  0  0  0  0  0  0  0
   10.4507   -0.5354   16.1535 C   0  0  0  0  0  0  0  0  0  0  0  0
   10.2699   -1.2046   14.9305 C   0  0  0  0  0  0  0  0  0  0  0  0
   10.4101   -3.2992   13.5157 C   0  0  0  0  0  0  0  0  0  0  0  0
   10.9484   -3.2688   15.8726 N   0  0  0  0  0  0  0  0  0  0  0  0
    9.8026   -0.5498   13.8303 O   0  0  0  0  0  0  0  0  0  0  0  0
    9.1471    1.4289   17.3256 N   0  0  0  0  0  0  0  0  0  0  0  0
   11.1396   -0.6881   18.5830 C   0  0  0  0  0  0  0  0  0  0  0  0
   11.5497    0.7016   18.4180 O   0  0  0  0  0  0  0  0  0  0  0  0
   11.8835    1.5467   19.7273 P   0  0  1  0  0  0  0  0  0  0  0  0
   11.7225    3.0264   19.3724 O   0  0  0  0  0  0  0  0  0  0  0  0
   10.9694    1.0201   20.7815 O   0  0  0  0  0  0  0  0  0  0  0  0
   13.3497    1.1748   19.9610 O   0  0  0  0  0  0  0  0  0  0  0  0
    7.9180    2.0684   17.0918 C   0  0  0  0  0  0  0  0  0  0  0  0
    7.0406    2.7699   18.0016 C   0  0  0  0  0  0  0  0  0  0  0  0
    7.4230    1.9745   15.6599 C   0  0  0  0  0  0  0  0  0  0  0  0
    5.7295    2.8264   18.1048 O   0  0  0  0  0  0  0  0  0  0  0  0
    7.7305    3.4379   18.7854 O   0  0  0  0  0  0  0  0  0  0  0  0
    7.2535    0.6101   15.2134 O   0  0  0  0  0  0  0  0  0  0  0  0
    8.0211   -0.3217   16.0399 N   0  0  0  0  0  0  0  0  0  0  0  0
  1  3  2  0
  3  5  1  0
  4  5  1  0
  2  6  1  0
  5  6  2  0
  2  7  1  0
  2  8  2  0
  1  8  1  0
  6  9  1  0
  4 10  1  0
  3 11  1  0
 11 12  1  0
 12 13  1  0
 13 14  1  6
 13 15  2  0
 13 16  1  0
 10 17  2  0
 17 18  1  0
 17 19  1  0
 18 20  2  0
 18 21  1  0
 19 22  1  0
 22 23  1  0
M  END
