7SDD_4IP_A_500
     RDKit          3D

 28 28  0  0  0  0  0  0  0  0999 V2000
    9.9706   -1.6943   -5.3244 C   0  0  2  0  0  0  0  0  0  0  0  0
    9.1795   -0.9046   -4.4855 O   0  0  0  0  0  0  0  0  0  0  0  0
   11.3736   -1.7478   -4.8226 C   0  0  2  0  0  0  0  0  0  0  0  0
   11.6585   -0.7411   -3.8887 O   0  0  0  0  0  0  0  0  0  0  0  0
   12.4036   -1.6721   -5.9107 C   0  0  2  0  0  0  0  0  0  0  0  0
   12.6447   -0.4192   -6.4081 O   0  0  0  0  0  0  0  0  0  0  0  0
   11.9422   -2.6555   -6.9976 C   0  0  1  0  0  0  0  0  0  0  0  0
   11.8237   -3.8549   -6.3362 O   0  0  0  0  0  0  0  0  0  0  0  0
   10.6614   -2.1522   -7.6179 C   0  0  2  0  0  0  0  0  0  0  0  0
   10.8236   -1.7301   -8.9144 O   0  0  0  0  0  0  0  0  0  0  0  0
    9.9122   -1.1755   -6.7517 C   0  0  1  0  0  0  0  0  0  0  0  0
    8.5835   -1.2218   -7.1291 O   0  0  0  0  0  0  0  0  0  0  0  0
    8.0916    0.0581   -5.3423 P   0  0  1  0  0  5  0  0  0  0  0  0
    7.7715    1.2516   -4.4615 O   0  0  0  0  0  0  0  0  0  0  0  0
    8.7420    0.6403   -6.7919 O   0  0  0  0  0  0  0  0  0  0  0  0
    6.6385   -0.7516   -5.6387 O   0  0  0  0  0  0  0  0  0  0  0  0
   13.8394    0.4021   -5.5307 P   0  0  1  0  0  5  0  0  0  0  0  0
   14.3279    1.5862   -6.3639 O   0  0  0  0  0  0  0  0  0  0  0  0
   13.0833    1.0398   -4.1623 O   0  0  0  0  0  0  0  0  0  0  0  0
   15.1203   -0.6169   -5.1281 O   0  0  0  0  0  0  0  0  0  0  0  0
   13.0728   -4.9288   -6.5249 P   0  0  2  0  0  5  0  0  0  0  0  0
   14.3312   -4.3875   -5.5250 O   0  0  0  0  0  0  0  0  0  0  0  0
   13.6852   -4.9981   -8.0969 O   0  0  0  0  0  0  0  0  0  0  0  0
   12.7291   -6.3337   -6.0580 O   0  0  0  0  0  0  0  0  0  0  0  0
   10.0976   -2.6364  -10.1011 P   0  0  2  0  0  5  0  0  0  0  0  0
   10.3058   -4.2689   -9.6977 O   0  0  0  0  0  0  0  0  0  0  0  0
   10.7380   -2.4796  -11.4580 O   0  0  0  0  0  0  0  0  0  0  0  0
    8.4309   -2.3602  -10.1957 O   0  0  0  0  0  0  0  0  0  0  0  0
  1  2  1  1
  1  3  1  0
  3  4  1  1
  3  5  1  0
  5  6  1  6
  5  7  1  0
  7  8  1  1
  7  9  1  0
  9 10  1  6
  1 11  1  0
  9 11  1  0
 11 12  1  6
  2 13  1  0
 13 14  2  0
 13 15  1  6
 13 16  1  0
  6 17  1  0
 17 18  2  0
 17 19  1  1
 17 20  1  0
  8 21  1  0
 21 22  1  1
 21 23  1  0
 21 24  2  0
 10 25  1  0
 25 26  1  1
 25 27  2  0
 25 28  1  0
M  END
$$$$
