7E4L_MDN_A_301
     RDKit          3D

 15 14  0  0  0  0  0  0  0  0999 V2000
  -12.6661   -3.1838  -13.2611 O   0  0  0  0  0  0  0  0  0  0  0  0
  -13.3847   -3.2316  -14.7935 P   0  0  2  0  0  5  0  0  0  0  0  0
  -12.5946   -2.3574  -15.7404 O   0  0  0  0  0  0  0  0  0  0  0  0
  -14.9697   -2.6463  -14.6970 O   0  0  0  0  0  0  0  0  0  0  0  0
  -13.3898   -4.9374  -15.4275 C   0  0  1  0  0  0  0  0  0  0  0  0
  -14.5143   -5.9867  -14.4559 P   0  0  1  0  0  5  0  0  0  0  0  0
  -14.0273   -6.0764  -13.0274 O   0  0  0  0  0  0  0  0  0  0  0  0
  -16.0776   -5.3392  -14.4783 O   0  0  0  0  0  0  0  0  0  0  0  0
  -14.5413   -7.5363  -15.1345 O   0  0  0  0  0  0  0  0  0  0  0  0
  -13.2292   -3.7727  -12.6980 H   0  0  0  0  0  0  0  0  0  0  0  0
  -15.4554   -3.1038  -15.4288 H   0  0  0  0  0  0  0  0  0  0  0  0
  -13.7183   -4.9334  -16.4870 H   0  0  0  0  0  0  0  0  0  0  0  0
  -12.3624   -5.3520  -15.3687 H   0  0  0  0  0  0  0  0  0  0  0  0
  -16.1593   -4.8481  -13.6223 H   0  0  0  0  0  0  0  0  0  0  0  0
  -14.5403   -7.3836  -16.1131 H   0  0  0  0  0  0  0  0  0  0  0  0
  2  1  1  1
  2  3  2  0
  2  4  1  0
  2  5  1  0
  5  6  1  0
  6  7  2  0
  6  8  1  1
  6  9  1  0
  1 10  1  0
  4 11  1  0
  5 12  1  6
  5 13  1  0
  8 14  1  0
  9 15  1  0
M  END
