8A1H_DLZ_A_602
     RDKit          3D

 41 42  0  0  0  0  0  0  0  0999 V2000
    0.4837   -2.4042   -1.9909 C   0  0  0  0  0  0  0  0  0  0  0  0
    0.9396   -1.3682   -0.9775 C   0  0  0  0  0  0  0  0  0  0  0  0
    1.9352   -1.7235   -0.0172 C   0  0  0  0  0  0  0  0  0  0  0  0
    2.4244   -3.1332    0.1587 C   0  0  0  0  0  0  0  0  0  0  0  0
    2.5003   -0.7695    0.7649 N   0  0  0  0  0  0  0  0  0  0  0  0
    2.1325    0.5238    0.6697 C   0  0  0  0  0  0  0  0  0  0  0  0
    2.7315    1.5270    1.4291 C   0  0  0  0  0  0  0  0  0  0  0  0
    3.6434    1.2453    2.2529 O   0  0  0  0  0  0  0  0  0  0  0  0
    2.3306    2.8189    1.2727 N   0  0  0  0  0  0  0  0  0  0  0  0
    1.3526    3.1618    0.3854 C   0  0  0  0  0  0  0  0  0  0  0  0
    1.0137    4.3680    0.2596 O   0  0  0  0  0  0  0  0  0  0  0  0
    0.7344    2.2122   -0.3659 N   0  0  0  0  0  0  0  0  0  0  0  0
    1.0638    0.8974   -0.2610 C   0  0  0  0  0  0  0  0  0  0  0  0
    0.4357   -0.0741   -1.0013 N   0  0  0  0  0  0  0  0  0  0  0  0
   -0.7529    0.3019   -1.8102 C   0  0  0  0  0  0  0  0  0  0  0  0
   -2.0467    0.5160   -0.9760 C   0  0  2  0  0  0  0  0  0  0  0  0
   -1.8773    1.5450   -0.0355 O   0  0  0  0  0  0  0  0  0  0  0  0
   -2.6141   -0.7808   -0.3154 C   0  0  2  0  0  0  0  0  0  0  0  0
   -4.0146   -0.7832   -0.4491 O   0  0  0  0  0  0  0  0  0  0  0  0
   -2.2726   -0.9310    1.1896 C   0  0  2  0  0  0  0  0  0  0  0  0
   -0.8881   -0.8222    1.3859 O   0  0  0  0  0  0  0  0  0  0  0  0
   -2.7510   -2.2914    1.7257 C   0  0  0  0  0  0  0  0  0  0  0  0
   -2.5227   -2.3825    3.1066 O   0  0  0  0  0  0  0  0  0  0  0  0
    0.5016   -1.9746   -3.0132 H   0  0  0  0  0  0  0  0  0  0  0  0
    1.1547   -3.2824   -2.0481 H   0  0  0  0  0  0  0  0  0  0  0  0
   -0.5286   -2.7752   -1.7468 H   0  0  0  0  0  0  0  0  0  0  0  0
    1.5656   -3.8331    0.2348 H   0  0  0  0  0  0  0  0  0  0  0  0
    3.0757   -3.4172   -0.6942 H   0  0  0  0  0  0  0  0  0  0  0  0
    3.0179   -3.2243    1.0935 H   0  0  0  0  0  0  0  0  0  0  0  0
    2.7874    3.5673    1.8429 H   0  0  0  0  0  0  0  0  0  0  0  0
   -0.5338    1.2382   -2.3697 H   0  0  0  0  0  0  0  0  0  0  0  0
   -0.9809   -0.4346   -2.6027 H   0  0  0  0  0  0  0  0  0  0  0  0
   -2.7953    0.8634   -1.7284 H   0  0  0  0  0  0  0  0  0  0  0  0
   -2.7846    1.8696    0.2045 H   0  0  0  0  0  0  0  0  0  0  0  0
   -2.2094   -1.6676   -0.8460 H   0  0  0  0  0  0  0  0  0  0  0  0
   -4.2188   -1.0657   -1.3792 H   0  0  0  0  0  0  0  0  0  0  0  0
   -2.8065   -0.1277    1.7520 H   0  0  0  0  0  0  0  0  0  0  0  0
   -0.7477   -0.4444    2.2932 H   0  0  0  0  0  0  0  0  0  0  0  0
   -2.2377   -3.1222    1.1877 H   0  0  0  0  0  0  0  0  0  0  0  0
   -3.8422   -2.4013    1.5514 H   0  0  0  0  0  0  0  0  0  0  0  0
   -1.5836   -2.6829    3.2234 H   0  0  0  0  0  0  0  0  0  0  0  0
  1  2  1  0
  2  3  2  0
  3  4  1  0
  3  5  1  0
  5  6  2  0
  6  7  1  0
  7  8  2  0
  7  9  1  0
  9 10  1  0
 10 11  2  0
 10 12  1  0
  6 13  1  0
 12 13  2  0
  2 14  1  0
 13 14  1  0
 14 15  1  0
 15 16  1  0
 16 17  1  0
 16 18  1  0
 18 19  1  0
 18 20  1  0
 20 21  1  0
 20 22  1  0
 22 23  1  0
  1 24  1  0
  1 25  1  0
  1 26  1  0
  4 27  1  0
  4 28  1  0
  4 29  1  0
  9 30  1  0
 15 31  1  0
 15 32  1  0
 16 33  1  6
 17 34  1  0
 18 35  1  6
 19 36  1  0
 20 37  1  1
 21 38  1  0
 22 39  1  0
 22 40  1  0
 23 41  1  0
M  END
