1IG3_VIB_B_501
     RDKit          3D

 18 19  0  0  0  0  0  0  0  0999 V2000
   22.2075   56.5818   13.5606 C   0  0  0  0  0  0  0  0  0  0  0  0
   22.1823   54.6496    9.0269 N   0  0  0  0  0  0  0  0  0  0  0  0
   19.0591   56.5038    5.3413 C   0  0  0  0  0  0  0  0  0  0  0  0
   19.4027   60.1953    2.2932 O   0  0  0  0  0  0  0  0  0  0  0  0
   19.8763   59.9345    3.5999 C   0  0  0  0  0  0  0  0  0  0  0  0
   20.5752   58.5514    3.6134 C   0  0  0  0  0  0  0  0  0  0  0  0
   21.6447   58.1048    7.3037 C   0  0  0  0  0  0  0  0  0  0  0  0
   22.1793   59.1030    5.9559 S   0  0  0  0  0  0  0  0  0  0  0  0
   20.8720   58.2565    5.0541 C   0  0  0  0  0  0  0  0  0  0  0  0
   20.2159   57.3605    5.8399 C   0  0  0  0  0  0  0  0  0  0  0  0
   20.6773   57.3258    7.0428 N   0  0  0  0  0  0  0  0  0  0  0  0
   20.1417   56.4498    8.0972 C   0  0  0  0  0  0  0  0  0  0  0  0
   21.6668   55.5863    9.9312 C   0  0  0  0  0  0  0  0  0  0  0  0
   22.1593   55.6245   11.2414 N   0  0  0  0  0  0  0  0  0  0  0  0
   21.6639   56.5572   12.1631 C   0  0  0  0  0  0  0  0  0  0  0  0
   20.6632   57.4703   11.7649 N   0  0  0  0  0  0  0  0  0  0  0  0
   20.1626   57.4379   10.4466 C   0  0  0  0  0  0  0  0  0  0  0  0
   20.6691   56.4935    9.5169 C   0  0  0  0  0  0  0  0  0  0  0  0
  4  5  1  0
  5  6  1  0
  7  8  1  0
  6  9  1  0
  8  9  1  0
  3 10  1  0
  9 10  2  0
  7 11  2  0
 10 11  1  0
 11 12  1  0
  2 13  1  0
 13 14  2  0
  1 15  1  0
 14 15  1  0
 15 16  2  0
 16 17  1  0
 12 18  1  0
 13 18  1  0
 17 18  2  0
M  CHG  1  11   1
M  END
