
     RDKit          3D

 31 34  0  0  0  0  0  0  0  0999 V2000
  -34.1769    4.1737  -23.9805 N   0  0  0  0  0  0  0  0  0  0  0  0
  -31.3018    4.1857  -21.5761 N   0  0  0  0  0  0  0  0  0  0  0  0
  -33.3882    3.9654  -20.4453 C   0  0  0  0  0  0  0  0  0  0  0  0
  -31.9973    4.0436  -20.4294 C   0  0  0  0  0  0  0  0  0  0  0  0
  -32.0564    4.2556  -22.7205 C   0  0  0  0  0  0  0  0  0  0  0  0
  -31.2668    4.4895  -23.9699 C   0  0  0  0  0  0  0  0  0  0  0  0
  -31.2089    3.9597  -19.1874 C   0  0  0  0  0  0  0  0  0  0  0  0
  -31.0298    3.9751  -16.6843 C   0  0  0  0  0  0  0  0  0  0  0  0
  -29.7158    3.7730  -19.3522 C   0  0  0  0  0  0  0  0  0  0  0  0
  -25.1553    3.5815  -18.5533 C   0  0  0  0  0  0  0  0  0  0  0  0
  -23.7022    2.5361  -20.1926 C   0  0  0  0  0  0  0  0  0  0  0  0
  -24.2069    3.3190  -17.5557 C   0  0  0  0  0  0  0  0  0  0  0  0
  -36.5243    4.4752  -23.2761 C   0  0  0  0  0  0  0  0  0  0  0  0
  -26.4914    5.4656  -18.0701 O   0  0  0  0  0  0  0  0  0  0  0  0
  -26.4511    4.2525  -18.2536 C   0  0  0  0  0  0  0  0  0  0  0  0
  -23.0060    2.6780  -17.8811 C   0  0  0  0  0  0  0  0  0  0  0  0
  -22.7550    2.2895  -19.1989 C   0  0  0  0  0  0  0  0  0  0  0  0
  -24.9034    3.1756  -19.8713 C   0  0  0  0  0  0  0  0  0  0  0  0
  -27.5632    3.4384  -18.1725 N   0  0  0  0  0  0  0  0  0  0  0  0
  -28.9110    3.9907  -18.0527 C   0  0  2  0  0  0  0  0  0  0  0  0
  -29.6376    3.3730  -16.8548 C   0  0  0  0  0  0  0  0  0  0  0  0
  -31.7869    4.0772  -17.9764 C   0  0  0  0  0  0  0  0  0  0  0  0
  -34.1322    4.0166  -21.5811 N   0  0  0  0  0  0  0  0  0  0  0  0
  -30.0946    3.7872  -24.0672 N   0  0  0  0  0  0  0  0  0  0  0  0
  -31.6199    5.2798  -24.8393 O   0  0  0  0  0  0  0  0  0  0  0  0
  -33.4648    4.1691  -22.7554 C   0  0  0  0  0  0  0  0  0  0  0  0
  -35.4899    4.3818  -24.2334 C   0  0  0  0  0  0  0  0  0  0  0  0
  -36.1194    4.5878  -25.4365 C   0  0  0  0  0  0  0  0  0  0  0  0
  -37.7206    4.6953  -23.8314 N   0  0  0  0  0  0  0  0  0  0  0  0
  -37.4407    4.7668  -25.1482 N   0  0  0  0  0  0  0  0  0  0  0  0
  -38.5024    5.0366  -26.0872 C   0  0  0  0  0  0  0  0  0  0  0  0
  3  4  4  0
  2  4  4  0
  2  5  4  0
  5  6  1  0
  4  7  1  0
  7  9  1  0
 10 12  4  0
 14 15  2  0
 10 15  1  0
 12 16  4  0
 16 17  4  0
 11 17  4  0
 10 18  4  0
 11 18  4  0
 15 19  1  0
 20 19  1  6
  9 20  1  0
  8 21  1  0
 20 21  1  0
  8 22  1  0
  7 22  2  0
  3 23  4  0
  6 24  1  0
  6 25  2  0
 23 26  4  0
  5 26  4  0
  1 26  1  0
  1 27  1  0
 13 27  4  0
 27 28  4  0
 13 29  4  0
 28 30  4  0
 29 30  4  0
 30 31  1  0
M  END
