1SQ5_PAU_A_6001
     RDKit          3D

 15 14  0  0  0  0  0  0  0  0999 V2000
   56.4220    4.6030    8.5350 O   0  0  0  0  0  0  0  0  0  0  0  0
   54.2700    4.0680    7.3520 C   0  0  0  0  0  0  0  0  0  0  0  0
   55.4240    3.6040    8.3380 C   0  0  0  0  0  0  0  0  0  0  0  0
   54.9570    4.6000    6.0220 C   0  0  0  0  0  0  0  0  0  0  0  0
   53.4530    2.8270    7.1020 C   0  0  0  0  0  0  0  0  0  0  0  0
   53.3530    5.3320    7.9900 C   0  0  1  0  0  0  0  0  0  0  0  0
   54.1660    6.5480    8.0040 O   0  0  0  0  0  0  0  0  0  0  0  0
   52.0560    5.6780    7.1210 C   0  0  0  0  0  0  0  0  0  0  0  0
   52.1710    6.5550    6.1200 O   0  0  0  0  0  0  0  0  0  0  0  0
   50.9080    5.0760    7.3850 N   0  0  0  0  0  0  0  0  0  0  0  0
   49.6790    5.2500    6.5560 C   0  0  0  0  0  0  0  0  0  0  0  0
   48.5740    6.0540    7.3050 C   0  0  0  0  0  0  0  0  0  0  0  0
   49.1200    7.3540    7.9370 C   0  0  0  0  0  0  0  0  0  0  0  0
   49.6170    7.3980    9.1700 O   0  0  0  0  0  0  0  0  0  0  0  0
   49.0410    8.4140    7.1470 O   0  0  0  0  0  0  0  0  0  0  0  0
  1  3  1  0
  2  3  1  0
  2  4  1  0
  2  5  1  0
  2  6  1  0
  6  7  1  6
  6  8  1  0
  8  9  2  0
  8 10  1  0
 10 11  1  0
 11 12  1  0
 12 13  1  0
 13 14  1  0
 13 15  2  0
M  END
$$$$
1SQ5_PAU_D_6004
     RDKit          3D

 15 14  0  0  0  0  0  0  0  0999 V2000
   57.8910  -39.5840    5.6810 O   0  0  0  0  0  0  0  0  0  0  0  0
   55.6570  -39.2590    4.5090 C   0  0  0  0  0  0  0  0  0  0  0  0
   57.1130  -38.7030    4.8690 C   0  0  0  0  0  0  0  0  0  0  0  0
   55.1150  -40.0540    5.7690 C   0  0  0  0  0  0  0  0  0  0  0  0
   54.8420  -38.0340    4.2330 C   0  0  0  0  0  0  0  0  0  0  0  0
   55.6890  -40.3190    3.1950 C   0  0  1  0  0  0  0  0  0  0  0  0
   56.5820  -41.4450    3.4960 O   0  0  0  0  0  0  0  0  0  0  0  0
   54.2720  -40.9890    2.8120 C   0  0  0  0  0  0  0  0  0  0  0  0
   53.9380  -42.1420    3.3760 O   0  0  0  0  0  0  0  0  0  0  0  0
   53.4490  -40.3970    1.9790 N   0  0  0  0  0  0  0  0  0  0  0  0
   53.7060  -40.2230    0.5330 C   0  0  0  0  0  0  0  0  0  0  0  0
   53.0530  -41.3430   -0.3210 C   0  0  0  0  0  0  0  0  0  0  0  0
   53.8920  -42.6350   -0.3020 C   0  0  0  0  0  0  0  0  0  0  0  0
   55.2080  -42.6500   -0.5130 O   0  0  0  0  0  0  0  0  0  0  0  0
   53.1750  -43.7240   -0.0640 O   0  0  0  0  0  0  0  0  0  0  0  0
  1  3  1  0
  2  3  1  0
  2  4  1  0
  2  5  1  0
  2  6  1  0
  6  7  1  1
  6  8  1  0
  8  9  2  0
  8 10  1  0
 10 11  1  0
 11 12  1  0
 12 13  1  0
 13 14  1  0
 13 15  2  0
M  END
$$$$
1SQ5_PAU_C_6002
     RDKit          3D

 15 14  0  0  0  0  0  0  0  0999 V2000
   24.4670   14.0280  -10.2300 O   0  0  0  0  0  0  0  0  0  0  0  0
   24.0710   16.4780  -10.6950 C   0  0  0  0  0  0  0  0  0  0  0  0
   23.4790   15.0060  -10.5410 C   0  0  0  0  0  0  0  0  0  0  0  0
   25.4110   16.3800  -11.5440 C   0  0  0  0  0  0  0  0  0  0  0  0
   22.9900   17.2380  -11.4150 C   0  0  0  0  0  0  0  0  0  0  0  0
   24.4630   17.1800   -9.2130 C   0  0  1  0  0  0  0  0  0  0  0  0
   25.4750   16.3730   -8.5380 O   0  0  0  0  0  0  0  0  0  0  0  0
   25.0760   18.6690   -9.3060 C   0  0  0  0  0  0  0  0  0  0  0  0
   26.3920   18.8280   -9.4000 O   0  0  0  0  0  0  0  0  0  0  0  0
   24.2870   19.7190   -9.3180 N   0  0  0  0  0  0  0  0  0  0  0  0
   23.6300   20.2970   -8.1350 C   0  0  0  0  0  0  0  0  0  0  0  0
   24.5480   21.2680   -7.3540 C   0  0  0  0  0  0  0  0  0  0  0  0
   25.4200   20.5270   -6.3140 C   0  0  0  0  0  0  0  0  0  0  0  0
   24.9590   19.5440   -5.5430 O   0  0  0  0  0  0  0  0  0  0  0  0
   26.6660   20.9700   -6.2630 O   0  0  0  0  0  0  0  0  0  0  0  0
  1  3  1  0
  2  3  1  0
  2  4  1  0
  2  5  1  0
  2  6  1  0
  6  7  1  6
  6  8  1  0
  8  9  2  0
  8 10  1  0
 10 11  1  0
 11 12  1  0
 12 13  1  0
 13 14  1  0
 13 15  2  0
M  END
$$$$
1SQ5_PAU_B_6003
     RDKit          3D

 15 14  0  0  0  0  0  0  0  0999 V2000
   64.3650   41.6750   13.3350 O   0  0  0  0  0  0  0  0  0  0  0  0
   65.0460   39.2480   13.3100 C   0  0  0  0  0  0  0  0  0  0  0  0
   65.1940   40.6940   13.9560 C   0  0  0  0  0  0  0  0  0  0  0  0
   65.1720   39.4060   11.7360 C   0  0  0  0  0  0  0  0  0  0  0  0
   66.1830   38.4580   13.8830 C   0  0  0  0  0  0  0  0  0  0  0  0
   63.5330   38.5670   13.6440 C   0  0  1  0  0  0  0  0  0  0  0  0
   62.4830   39.3920   13.0390 O   0  0  0  0  0  0  0  0  0  0  0  0
   63.3080   37.0800   13.0650 C   0  0  0  0  0  0  0  0  0  0  0  0
   62.7990   36.9100   11.8440 O   0  0  0  0  0  0  0  0  0  0  0  0
   63.6480   36.0450   13.7820 N   0  0  0  0  0  0  0  0  0  0  0  0
   62.9000   35.5740   14.9580 C   0  0  0  0  0  0  0  0  0  0  0  0
   61.8440   34.5080   14.5800 C   0  0  0  0  0  0  0  0  0  0  0  0
   60.4890   35.1500   14.2010 C   0  0  0  0  0  0  0  0  0  0  0  0
   59.9400   36.1440   14.8980 O   0  0  0  0  0  0  0  0  0  0  0  0
   59.9350   34.6170   13.1220 O   0  0  0  0  0  0  0  0  0  0  0  0
  1  3  1  0
  2  3  1  0
  2  4  1  0
  2  5  1  0
  2  6  1  0
  6  7  1  6
  6  8  1  0
  8  9  2  0
  8 10  1  0
 10 11  1  0
 11 12  1  0
 12 13  1  0
 13 14  1  0
 13 15  2  0
M  END
$$$$
