7ZZB_KGX_A_302
     RDKit          3D

 51 56  0  0  0  0  0  0  0  0999 V2000
   13.1907    5.7778   14.0829 N   0  0  0  0  0  0  0  0  0  0  0  0
   17.5587    9.2611   13.2732 C   0  0  1  0  0  0  0  0  0  0  0  0
   18.6088    6.5303   10.1041 C   0  0  0  0  0  0  0  0  0  0  0  0
   14.2842    7.7143   13.0020 N   0  0  0  0  0  0  0  0  0  0  0  0
   17.3891    7.1707    9.7004 C   0  0  0  0  0  0  0  0  0  0  0  0
   17.3425    6.9671   12.8028 O   0  0  0  0  0  0  0  0  0  0  0  0
   13.2256    4.3510   14.3701 C   0  0  0  0  0  0  0  0  0  0  0  0
   15.0760    9.9775   13.3963 O   0  0  0  0  0  0  0  0  0  0  0  0
   18.6312    7.3015   12.5159 C   0  0  2  0  0  0  0  0  0  0  0  0
   18.7095    8.8026   12.4033 C   0  0  2  0  0  0  0  0  0  0  0  0
   19.1326    6.6045   11.3484 N   0  0  0  0  0  0  0  0  0  0  0  0
   16.6369    8.0716   13.2366 C   0  0  2  0  0  0  0  0  0  0  0  0
   17.7909    9.1553   11.3521 O   0  0  0  0  0  0  0  0  0  0  0  0
   15.4306    8.3712   12.4075 C   0  0  0  0  0  0  0  0  0  0  0  0
   19.8714    9.3130   12.9625 O   0  0  0  0  0  0  0  0  0  0  0  0
   14.2226    6.3189   13.2615 C   0  0  0  0  0  0  0  0  0  0  0  0
   14.8680    9.5951    9.6190 N   0  0  0  0  0  0  0  0  0  0  0  0
   12.1754    2.5014   15.4537 N   0  0  0  0  0  0  0  0  0  0  0  0
   12.0601    3.9349   15.2428 C   0  0  0  0  0  0  0  0  0  0  0  0
   15.0521    5.4931   12.7959 O   0  0  0  0  0  0  0  0  0  0  0  0
   16.3627    7.7145    9.3782 C   0  0  0  0  0  0  0  0  0  0  0  0
   15.0947    8.3616    8.9815 C   0  0  0  0  0  0  0  0  0  0  0  0
   15.9309   10.1961   10.3171 C   0  0  0  0  0  0  0  0  0  0  0  0
   16.4583    9.3988   11.4949 C   0  0  2  0  0  0  0  0  0  0  0  0
   18.4759    9.4348   12.5189 C   0  0  2  0  0  0  0  0  0  0  0  0
   17.4521    9.5494   13.6025 C   0  0  1  0  0  0  0  0  0  0  0  0
   16.3041   10.1605   12.7885 C   0  0  2  0  0  0  0  0  0  0  0  0
   18.6194   11.8000   11.9128 C   0  0  0  0  0  0  0  0  0  0  0  0
   20.7653   12.2041   12.0099 C   0  0  0  0  0  0  0  0  0  0  0  0
   20.5438   10.8840   12.3318 C   0  0  0  0  0  0  0  0  0  0  0  0
   22.8120   10.6407   12.6106 C   0  0  0  0  0  0  0  0  0  0  0  0
   22.0207   12.7730   11.9812 C   0  0  0  0  0  0  0  0  0  0  0  0
   13.8715   10.4276    9.0765 C   0  0  0  0  0  0  0  0  0  0  0  0
   14.3501   11.4681    8.1264 C   0  0  0  0  0  0  0  0  0  0  0  0
   20.4889    5.3527   10.1187 C   0  0  0  0  0  0  0  0  0  0  0  0
   20.2827    5.8889   11.3720 C   0  0  0  0  0  0  0  0  0  0  0  0
   22.2913    4.8682   12.1027 C   0  0  0  0  0  0  0  0  0  0  0  0
   21.6139    4.5772    9.9005 C   0  0  0  0  0  0  0  0  0  0  0  0
   19.4500    5.7635    9.3718 N   0  0  0  0  0  0  0  0  0  0  0  0
   21.1861    5.6330   12.3251 N   0  0  0  0  0  0  0  0  0  0  0  0
   22.5178    4.3289   10.8802 N   0  0  0  0  0  0  0  0  0  0  0  0
   21.8469    4.0171    8.6142 N   0  0  0  0  0  0  0  0  0  0  0  0
   19.2351   10.6333   12.2740 N   0  0  0  0  0  0  0  0  0  0  0  0
   19.5699   12.7381   11.7584 N   0  0  0  0  0  0  0  0  0  0  0  0
   21.5773   10.1075   12.6317 N   0  0  0  0  0  0  0  0  0  0  0  0
   23.0481   11.9307   12.2974 N   0  0  0  0  0  0  0  0  0  0  0  0
   22.2471   14.1389   11.6485 N   0  0  0  0  0  0  0  0  0  0  0  0
   17.9432    9.5667   14.5709 O   0  0  0  0  0  0  0  0  0  0  0  0
   17.0139    8.2845   13.9894 O   0  0  0  0  0  0  0  0  0  0  0  0
   13.5376   12.5025    7.6681 O   0  0  0  0  0  0  0  0  0  0  0  0
   15.5358   11.4606    7.6846 O   0  0  0  0  0  0  0  0  0  0  0  0
  3  5  1  0
  1  7  1  0
  6  9  1  0
  9 10  1  0
  2 10  1  0
  3 11  1  0
  9 11  1  6
  6 12  1  0
  2 12  1  0
  4 14  1  0
 12 14  1  6
 10 15  1  1
  1 16  1  0
  4 16  1  0
 18 19  1  0
  7 19  1  0
 16 20  2  0
  5 21  3  0
 17 22  1  0
 21 22  1  0
 17 23  1  0
 13 24  1  0
 24 23  1  6
 13 25  1  0
 25 26  1  0
 26 27  1  0
 27  8  1  1
 24 27  1  0
 29 30  2  0
 29 32  1  0
 17 33  1  0
 33 34  1  0
 35 36  2  0
 11 36  1  0
 35 38  1  0
 35 39  1  0
  3 39  2  0
 37 40  2  0
 36 40  1  0
 38 41  2  0
 37 41  1  0
 38 42  1  0
 28 43  1  0
 30 43  1  0
 25 43  1  6
 29 44  1  0
 28 44  2  0
 30 45  1  0
 31 45  2  0
 32 46  2  0
 31 46  1  0
 32 47  1  0
  2 48  1  1
 26 49  1  6
 34 50  1  0
 34 51  2  0
M  END
$$$$
