1TT1_KAI_A_998
     RDKit          3D

 30 30  0  0  0  0  0  0  0  0999 V2000
    1.2657   -1.7646   26.2371 N   0  0  0  0  0  0  0  0  0  0  0  0
    0.0499   -1.1721   25.5085 C   0  0  0  0  0  0  0  0  0  0  0  0
   -1.5872    1.0830   24.2294 C   0  0  0  0  0  0  0  0  0  0  0  0
   -0.4015    2.7938   25.5151 C   0  0  0  0  0  0  0  0  0  0  0  0
    2.2402   -0.7053   26.4363 C   0  0  2  0  0  0  0  0  0  0  0  0
    1.4535    0.5809   26.4114 C   0  0  2  0  0  0  0  0  0  0  0  0
    0.6440    0.9606   27.7479 C   0  0  0  0  0  0  0  0  0  0  0  0
    0.5176    0.3373   25.2671 C   0  0  2  0  0  0  0  0  0  0  0  0
   -0.6569    0.1561   27.8710 C   0  0  0  0  0  0  0  0  0  0  0  0
   -0.5821    1.4326   24.9583 C   0  0  0  0  0  0  0  0  0  0  0  0
    3.4430   -0.7643   25.4173 C   0  0  0  0  0  0  0  0  0  0  0  0
    3.1371   -0.5728   24.2196 O   0  0  0  0  0  0  0  0  0  0  0  0
   -1.1402   -0.2077   26.7897 O   0  0  0  0  0  0  0  0  0  0  0  0
   -1.1347   -0.0759   29.0038 O   0  0  0  0  0  0  0  0  0  0  0  0
    4.5850   -1.0322   25.9012 O   0  0  0  0  0  0  0  0  0  0  0  0
    0.9766   -2.1414   27.1398 H   0  0  0  0  0  0  0  0  0  0  0  0
   -0.1331   -1.6761   24.5826 H   0  0  0  0  0  0  0  0  0  0  0  0
   -0.8670   -1.2600   26.0530 H   0  0  0  0  0  0  0  0  0  0  0  0
   -2.3255    1.7685   24.0057 H   0  0  0  0  0  0  0  0  0  0  0  0
   -1.6531    0.1179   23.8701 H   0  0  0  0  0  0  0  0  0  0  0  0
   -1.2229    3.4122   25.2188 H   0  0  0  0  0  0  0  0  0  0  0  0
   -0.3626    2.7401   26.5831 H   0  0  0  0  0  0  0  0  0  0  0  0
    0.5113    3.2122   25.1456 H   0  0  0  0  0  0  0  0  0  0  0  0
    2.7445   -0.8068   27.3744 H   0  0  0  0  0  0  0  0  0  0  0  0
    2.1082    1.4224   26.3208 H   0  0  0  0  0  0  0  0  0  0  0  0
    1.2611    0.7544   28.5974 H   0  0  0  0  0  0  0  0  0  0  0  0
    0.3909    1.9991   27.7011 H   0  0  0  0  0  0  0  0  0  0  0  0
    0.9965    0.4555   24.3175 H   0  0  0  0  0  0  0  0  0  0  0  0
   -0.7110    0.0132   25.9866 H   0  0  0  0  0  0  0  0  0  0  0  0
    4.6855   -1.1546   26.8248 H   0  0  0  0  0  0  0  0  0  0  0  0
  1  2  1  0
  1  5  1  0
  5  6  1  0
  6  7  1  0
  2  8  1  0
  6  8  1  0
  7  9  1  0
  3 10  2  3
  4 10  1  0
  8 10  1  0
  5 11  1  0
 11 12  2  0
  9 13  1  0
  9 14  2  0
 11 15  1  0
  1 16  1  0
  2 17  1  0
  2 18  1  0
  3 19  1  0
  3 20  1  0
  4 21  1  0
  4 22  1  0
  4 23  1  0
  5 24  1  6
  6 25  1  1
  7 26  1  0
  7 27  1  0
  8 28  1  1
 13 29  1  0
 15 30  1  0
M  END
