6XBO_5MC_A_401
     RDKit          3D

 38 39  0  0  0  0  0  0  0  0999 V2000
    2.4516   -1.5108    2.6894 P   0  0  0  0  0  5  0  0  0  0  0  0
    2.8492   -0.4533    3.6954 O   0  0  0  0  0  0  0  0  0  0  0  0
    1.4088   -2.6176    3.4312 O   0  0  0  0  0  0  0  0  0  0  0  0
    3.8320   -2.3302    2.1509 O   0  0  0  0  0  0  0  0  0  0  0  0
    1.6428   -0.7879    1.3745 O   0  0  0  0  0  0  0  0  0  0  0  0
    2.5551    0.0339    0.6838 C   0  0  0  0  0  0  0  0  0  0  0  0
    1.8451    0.7411   -0.4768 C   0  0  1  0  0  0  0  0  0  0  0  0
    1.2429   -0.2071   -1.3249 O   0  0  0  0  0  0  0  0  0  0  0  0
    0.7611    1.7031   -0.0065 C   0  0  1  0  0  0  0  0  0  0  0  0
    1.2866    2.9753    0.2751 O   0  0  0  0  0  0  0  0  0  0  0  0
   -0.1853    1.7321   -1.1862 C   0  0  1  0  0  0  0  0  0  0  0  0
    0.0894    2.8176   -2.0377 O   0  0  0  0  0  0  0  0  0  0  0  0
    0.1182    0.4150   -1.9158 C   0  0  2  0  0  0  0  0  0  0  0  0
   -1.0502   -0.4902   -1.8653 N   0  0  0  0  0  0  0  0  0  0  0  0
   -1.9240   -0.5759   -2.9192 C   0  0  0  0  0  0  0  0  0  0  0  0
   -1.7422    0.1004   -3.9675 O   0  0  0  0  0  0  0  0  0  0  0  0
   -3.0062   -1.3914   -2.8461 N   0  0  0  0  0  0  0  0  0  0  0  0
   -3.2743   -2.1328   -1.7421 C   0  0  0  0  0  0  0  0  0  0  0  0
   -4.4335   -2.9729   -1.7382 N   0  0  0  0  0  0  0  0  0  0  0  0
   -2.4159   -2.0493   -0.6326 C   0  0  0  0  0  0  0  0  0  0  0  0
   -1.3050   -1.2018   -0.7243 C   0  0  0  0  0  0  0  0  0  0  0  0
   -2.6662   -2.8308    0.6283 C   0  0  0  0  0  0  0  0  0  0  0  0
    0.5765   -2.1072    3.5983 H   0  0  0  0  0  0  0  0  0  0  0  0
    4.1947   -2.7726    2.9593 H   0  0  0  0  0  0  0  0  0  0  0  0
    3.3793   -0.5789    0.2539 H   0  0  0  0  0  0  0  0  0  0  0  0
    2.9913    0.8073    1.3563 H   0  0  0  0  0  0  0  0  0  0  0  0
    2.6087    1.3014   -1.0644 H   0  0  0  0  0  0  0  0  0  0  0  0
    0.2155    1.2984    0.8789 H   0  0  0  0  0  0  0  0  0  0  0  0
    1.6921    2.9199    1.1792 H   0  0  0  0  0  0  0  0  0  0  0  0
   -1.2456    1.7716   -0.8378 H   0  0  0  0  0  0  0  0  0  0  0  0
   -0.4039    3.5989   -1.6744 H   0  0  0  0  0  0  0  0  0  0  0  0
    0.3931    0.6258   -2.9739 H   0  0  0  0  0  0  0  0  0  0  0  0
   -4.6923   -3.5635   -0.9181 H   0  0  0  0  0  0  0  0  0  0  0  0
   -5.0516   -3.0077   -2.5791 H   0  0  0  0  0  0  0  0  0  0  0  0
   -0.6449   -1.1103    0.1283 H   0  0  0  0  0  0  0  0  0  0  0  0
   -2.6642   -3.9180    0.4030 H   0  0  0  0  0  0  0  0  0  0  0  0
   -1.8836   -2.6371    1.3928 H   0  0  0  0  0  0  0  0  0  0  0  0
   -3.6478   -2.5429    1.0599 H   0  0  0  0  0  0  0  0  0  0  0  0
  1  2  2  0
  1  3  1  0
  1  4  1  0
  1  5  1  0
  5  6  1  0
  7  6  1  0
  7  8  1  0
  7  9  1  0
  9 10  1  0
  9 11  1  0
 11 12  1  0
  8 13  1  0
 11 13  1  0
 13 14  1  0
 14 15  1  0
 15 16  2  0
 15 17  1  0
 17 18  2  0
 18 19  1  0
 18 20  1  0
 14 21  1  0
 20 21  2  0
 20 22  1  0
  3 23  1  0
  4 24  1  0
  6 25  1  0
  6 26  1  0
  7 27  1  6
  9 28  1  1
 10 29  1  0
 11 30  1  1
 12 31  1  0
 13 32  1  6
 19 33  1  0
 19 34  1  0
 21 35  1  0
 22 36  1  0
 22 37  1  0
 22 38  1  0
M  END
