7XI7_4RI_A_201
     RDKit          3D

 42 43  0  0  0  0  0  0  0  0999 V2000
   -0.6520   -1.4361    0.6306 C   0  0  0  0  0  0  0  0  0  0  0  0
   -0.9425   -2.0775   -0.5959 C   0  0  0  0  0  0  0  0  0  0  0  0
   -0.1810   -3.2139   -0.9449 C   0  0  0  0  0  0  0  0  0  0  0  0
    0.7987   -3.6475   -0.1097 N   0  0  0  0  0  0  0  0  0  0  0  0
    0.3452   -1.9224    1.4163 N   0  0  0  0  0  0  0  0  0  0  0  0
    2.9895    2.1594    3.5774 C   0  0  0  0  0  0  0  0  0  0  0  0
    2.5783    1.9213    2.1273 C   0  0  0  0  0  0  0  0  0  0  0  0
    1.0894    1.5717    2.0239 C   0  0  0  0  0  0  0  0  0  0  0  0
    0.6864    1.3167    0.5643 C   0  0  0  0  0  0  0  0  0  0  0  0
   -0.8262    1.0855    0.3940 C   0  0  0  0  0  0  0  0  0  0  0  0
   -1.3612   -0.1822    1.0838 C   0  0  0  0  0  0  0  0  0  0  0  0
    1.0653   -3.0142    1.0593 C   0  0  0  0  0  0  0  0  0  0  0  0
    2.1045   -3.4924    1.9099 N   0  0  0  0  0  0  0  0  0  0  0  0
   -0.4234   -3.9391   -2.1557 N   0  0  0  0  0  0  0  0  0  0  0  0
   -2.0023   -1.5744   -1.4954 C   0  0  0  0  0  0  0  0  0  0  0  0
   -1.6608   -0.8902   -2.6725 C   0  0  0  0  0  0  0  0  0  0  0  0
   -2.6627   -0.4213   -3.5276 C   0  0  0  0  0  0  0  0  0  0  0  0
   -4.0080   -0.6390   -3.2157 C   0  0  0  0  0  0  0  0  0  0  0  0
   -4.3532   -1.3282   -2.0494 C   0  0  0  0  0  0  0  0  0  0  0  0
   -3.3540   -1.7986   -1.1918 C   0  0  0  0  0  0  0  0  0  0  0  0
    2.4098    3.0029    4.0093 H   0  0  0  0  0  0  0  0  0  0  0  0
    2.8142    1.2450    4.1833 H   0  0  0  0  0  0  0  0  0  0  0  0
    4.0699    2.4120    3.6207 H   0  0  0  0  0  0  0  0  0  0  0  0
    2.7902    2.8403    1.5384 H   0  0  0  0  0  0  0  0  0  0  0  0
    3.1880    1.0887    1.7130 H   0  0  0  0  0  0  0  0  0  0  0  0
    0.8941    0.6623    2.6309 H   0  0  0  0  0  0  0  0  0  0  0  0
    0.4847    2.4105    2.4337 H   0  0  0  0  0  0  0  0  0  0  0  0
    0.9636    2.2050   -0.0446 H   0  0  0  0  0  0  0  0  0  0  0  0
    1.2535    0.4512    0.1587 H   0  0  0  0  0  0  0  0  0  0  0  0
   -1.3761    1.9662    0.7913 H   0  0  0  0  0  0  0  0  0  0  0  0
   -1.0523    1.0317   -0.6913 H   0  0  0  0  0  0  0  0  0  0  0  0
   -2.4498   -0.2672    0.8877 H   0  0  0  0  0  0  0  0  0  0  0  0
   -1.2654   -0.0764    2.1853 H   0  0  0  0  0  0  0  0  0  0  0  0
    2.6638   -4.3320    1.6407 H   0  0  0  0  0  0  0  0  0  0  0  0
    2.3173   -3.0057    2.8088 H   0  0  0  0  0  0  0  0  0  0  0  0
    0.1682   -4.7663   -2.3922 H   0  0  0  0  0  0  0  0  0  0  0  0
   -1.1957   -3.6886   -2.8110 H   0  0  0  0  0  0  0  0  0  0  0  0
   -0.6211   -0.7166   -2.9221 H   0  0  0  0  0  0  0  0  0  0  0  0
   -2.3965    0.1101   -4.4321 H   0  0  0  0  0  0  0  0  0  0  0  0
   -4.7825   -0.2757   -3.8787 H   0  0  0  0  0  0  0  0  0  0  0  0
   -5.3949   -1.4993   -1.8109 H   0  0  0  0  0  0  0  0  0  0  0  0
   -3.6312   -2.3354   -0.2928 H   0  0  0  0  0  0  0  0  0  0  0  0
  1  2  2  0
  2  3  1  0
  3  4  2  0
  1  5  1  0
  6  7  1  0
  7  8  1  0
  8  9  1  0
  9 10  1  0
 10 11  1  0
  1 11  1  0
  5 12  2  0
  4 12  1  0
 12 13  1  0
  3 14  1  0
  2 15  1  0
 15 16  2  0
 16 17  1  0
 17 18  2  0
 18 19  1  0
 15 20  1  0
 19 20  2  0
  6 21  1  0
  6 22  1  0
  6 23  1  0
  7 24  1  0
  7 25  1  0
  8 26  1  0
  8 27  1  0
  9 28  1  0
  9 29  1  0
 10 30  1  0
 10 31  1  0
 11 32  1  0
 11 33  1  0
 13 34  1  0
 13 35  1  0
 14 36  1  0
 14 37  1  0
 16 38  1  0
 17 39  1  0
 18 40  1  0
 19 41  1  0
 20 42  1  0
M  END
