7B2C_TP7_A_1204
     RDKit          3D

 43 42  0  0  0  0  0  0  0  0999 V2000
   -0.3885    0.2951    0.8805 N   0  0  0  0  0  0  0  0  0  0  0  0
    1.3631    3.3491   -1.9428 P   0  0  0  0  0  5  0  0  0  0  0  0
    0.6747    4.6949   -1.9633 O   0  0  0  0  0  0  0  0  0  0  0  0
    2.8811    3.5100   -1.2105 O   0  0  0  0  0  0  0  0  0  0  0  0
    1.5604    2.8018   -3.5326 O   0  0  0  0  0  0  0  0  0  0  0  0
    0.4059    2.2482   -1.0548 O   0  0  0  0  0  0  0  0  0  0  0  0
    0.9737    0.9504   -1.1072 C   0  0  1  0  0  0  0  0  0  0  0  0
    1.8826    1.0915    1.2156 C   0  0  0  0  0  0  0  0  0  0  0  0
    1.4452    2.2645    1.8243 O   0  0  0  0  0  0  0  0  0  0  0  0
    3.0647    0.6944    1.3960 O   0  0  0  0  0  0  0  0  0  0  0  0
    0.9631    0.3242    0.3076 C   0  0  1  0  0  0  0  0  0  0  0  0
    0.1748    0.0879   -2.0926 C   0  0  0  0  0  0  0  0  0  0  0  0
    0.1883   -1.1608    2.6185 O   0  0  0  0  0  0  0  0  0  0  0  0
   -0.7181   -0.5331    2.0059 C   0  0  0  0  0  0  0  0  0  0  0  0
   -2.1400   -0.6358    2.4809 C   0  0  0  0  0  0  0  0  0  0  0  0
   -2.6563   -2.0860    2.4986 C   0  0  0  0  0  0  0  0  0  0  0  0
   -3.1647   -2.5936    1.1336 C   0  0  0  0  0  0  0  0  0  0  0  0
   -2.0857   -2.7880    0.0539 C   0  0  0  0  0  0  0  0  0  0  0  0
   -1.0567   -3.8713    0.4187 C   0  0  0  0  0  0  0  0  0  0  0  0
   -0.0240   -4.0838   -0.6931 C   0  0  0  0  0  0  0  0  0  0  0  0
   -0.7643   -4.8561   -2.1687 S   0  0  0  0  0  0  0  0  0  0  0  0
   -1.1459    0.8759    0.4547 H   0  0  0  0  0  0  0  0  0  0  0  0
    2.6854    3.7993   -0.2839 H   0  0  0  0  0  0  0  0  0  0  0  0
    2.1614    3.4653   -3.9561 H   0  0  0  0  0  0  0  0  0  0  0  0
    2.0370    0.9353   -1.4513 H   0  0  0  0  0  0  0  0  0  0  0  0
    2.0617    2.7993    2.4243 H   0  0  0  0  0  0  0  0  0  0  0  0
    1.3376   -0.7217    0.2240 H   0  0  0  0  0  0  0  0  0  0  0  0
   -0.8954    0.0378   -1.8022 H   0  0  0  0  0  0  0  0  0  0  0  0
    0.5898   -0.9409   -2.1302 H   0  0  0  0  0  0  0  0  0  0  0  0
    0.2371    0.5207   -3.1124 H   0  0  0  0  0  0  0  0  0  0  0  0
   -2.8101   -0.0018    1.8613 H   0  0  0  0  0  0  0  0  0  0  0  0
   -2.1780   -0.2327    3.5159 H   0  0  0  0  0  0  0  0  0  0  0  0
   -3.5225   -2.1174    3.1953 H   0  0  0  0  0  0  0  0  0  0  0  0
   -1.9010   -2.7753    2.9296 H   0  0  0  0  0  0  0  0  0  0  0  0
   -3.6835   -3.5643    1.2919 H   0  0  0  0  0  0  0  0  0  0  0  0
   -3.9284   -1.8837    0.7476 H   0  0  0  0  0  0  0  0  0  0  0  0
   -1.5765   -1.8292   -0.1612 H   0  0  0  0  0  0  0  0  0  0  0  0
   -2.6057   -3.0862   -0.8815 H   0  0  0  0  0  0  0  0  0  0  0  0
   -1.5745   -4.8305    0.6367 H   0  0  0  0  0  0  0  0  0  0  0  0
   -0.5028   -3.5664    1.3298 H   0  0  0  0  0  0  0  0  0  0  0  0
    0.7839   -4.7477   -0.3189 H   0  0  0  0  0  0  0  0  0  0  0  0
    0.4357   -3.1146   -0.9778 H   0  0  0  0  0  0  0  0  0  0  0  0
   -1.0279   -6.0673   -1.5006 H   0  0  0  0  0  0  0  0  0  0  0  0
  2  3  2  0
  2  4  1  0
  2  5  1  0
  2  6  1  0
  6  7  1  0
  8  9  1  0
  8 10  2  0
 11  1  1  0
  7 11  1  0
  8 11  1  0
  7 12  1  0
  1 14  1  0
 13 14  2  0
 14 15  1  0
 15 16  1  0
 16 17  1  0
 17 18  1  0
 18 19  1  0
 19 20  1  0
 20 21  1  0
  1 22  1  0
  4 23  1  0
  5 24  1  0
  7 25  1  6
  9 26  1  0
 11 27  1  6
 12 28  1  0
 12 29  1  0
 12 30  1  0
 15 31  1  0
 15 32  1  0
 16 33  1  0
 16 34  1  0
 17 35  1  0
 17 36  1  0
 18 37  1  0
 18 38  1  0
 19 39  1  0
 19 40  1  0
 20 41  1  0
 20 42  1  0
 21 43  1  0
M  END
