7AMC_73B_B_201
     RDKit          3D

 31 34  0  0  0  0  0  0  0  0999 V2000
   19.5482   68.3252   50.0849 C   0  0  0  0  0  0  0  0  0  0  0  0
   20.1582   69.6407   50.5189 C   0  0  1  0  0  0  0  0  0  0  0  0
   20.1947   69.7255   52.0135 C   0  0  0  0  0  0  0  0  0  0  0  0
   21.2578   70.7428   52.4203 C   0  0  1  0  0  0  0  0  0  0  0  0
   21.0600   71.1516   53.7601 N   0  0  0  0  0  0  0  0  0  0  0  0
   20.6026   72.4721   54.0390 C   0  0  0  0  0  0  0  0  0  0  0  0
   20.5462   72.9743   55.3406 C   0  0  0  0  0  0  0  0  0  0  0  0
   20.1215   74.2534   55.6221 C   0  0  0  0  0  0  0  0  0  0  0  0
   19.7264   75.1107   54.6184 C   0  0  0  0  0  0  0  0  0  0  0  0
   19.2029   76.7105   55.0563 Cl  0  0  0  0  0  0  0  0  0  0  0  0
   19.7723   74.6413   53.3260 C   0  0  0  0  0  0  0  0  0  0  0  0
   20.2020   73.3497   53.0481 C   0  0  0  0  0  0  0  0  0  0  0  0
   22.5531   70.0785   52.1580 C   0  0  0  0  0  0  0  0  0  0  0  0
   23.5835   69.9530   53.0469 C   0  0  0  0  0  0  0  0  0  0  0  0
   24.7222   69.2661   52.6162 C   0  0  0  0  0  0  0  0  0  0  0  0
   24.8083   68.7307   51.3377 C   0  0  0  0  0  0  0  0  0  0  0  0
   23.7668   68.8569   50.4365 C   0  0  0  0  0  0  0  0  0  0  0  0
   22.6554   69.5309   50.8631 C   0  0  0  0  0  0  0  0  0  0  0  0
   21.5420   69.7337   50.0255 N   0  0  0  0  0  0  0  0  0  0  0  0
   21.7500   70.0669   48.6669 C   0  0  0  0  0  0  0  0  0  0  0  0
   23.0337   70.4043   48.0313 C   0  0  0  0  0  0  0  0  0  0  0  0
   20.7302   70.0872   47.8949 O   0  0  0  0  0  0  0  0  0  0  0  0
   25.8106   69.1460   53.5874 C   0  0  0  0  0  0  0  0  0  0  0  0
   25.6153   69.2467   54.9451 C   0  0  0  0  0  0  0  0  0  0  0  0
   26.6828   69.1230   55.7919 C   0  0  0  0  0  0  0  0  0  0  0  0
   27.9770   68.8979   55.3614 C   0  0  0  0  0  0  0  0  0  0  0  0
   28.1695   68.7976   54.0021 C   0  0  0  0  0  0  0  0  0  0  0  0
   27.1091   68.9184   53.1212 C   0  0  0  0  0  0  0  0  0  0  0  0
   29.0783   68.7725   56.2789 C   0  0  0  0  0  0  0  0  0  0  0  0
   30.2500   68.5793   55.8759 O   0  0  0  0  0  0  0  0  0  0  0  0
   28.8574   68.8647   57.6411 O   0  0  0  0  0  0  0  0  0  0  0  0
  2  1  1  1
  2  3  1  0
  3  4  1  0
  4  5  1  1
  5  6  1  0
  6  7  2  0
  7  8  1  0
  8  9  2  0
  9 10  1  0
  9 11  1  0
 11 12  2  0
  6 12  1  0
  4 13  1  0
 13 14  1  0
 14 15  2  0
 15 16  1  0
 16 17  2  0
 13 18  2  0
 17 18  1  0
  2 19  1  0
 18 19  1  0
 19 20  1  0
 20 21  1  0
 20 22  2  0
 15 23  1  0
 23 24  2  0
 24 25  1  0
 25 26  2  0
 26 27  1  0
 27 28  2  0
 23 28  1  0
 26 29  1  0
 29 30  2  0
 29 31  1  0
M  END
$$$$
