7JMV_4NC_A_301
     RDKit          3D

 11 11  0  0  0  0  0  0  0  0999 V2000
   38.1635  -29.6370  -13.0492 C   0  0  0  0  0  0  0  0  0  0  0  0
   38.8091  -30.8274  -12.8408 C   0  0  0  0  0  0  0  0  0  0  0  0
   38.5394  -31.9091  -13.6464 C   0  0  0  0  0  0  0  0  0  0  0  0
   37.6055  -31.7827  -14.6672 C   0  0  0  0  0  0  0  0  0  0  0  0
   36.9519  -30.5835  -14.8846 C   0  0  0  0  0  0  0  0  0  0  0  0
   37.2240  -29.4984  -14.0650 C   0  0  0  0  0  0  0  0  0  0  0  0
   38.4968  -28.5393  -12.3033 O   0  0  0  0  0  0  0  0  0  0  0  0
   39.7253  -30.9275  -11.8060 O   0  0  0  0  0  0  0  0  0  0  0  0
   37.4096  -32.8936  -15.5646 N   0  0  0  0  0  0  0  0  0  0  0  0
   36.5963  -32.8947  -16.4346 O   0  0  0  0  0  0  0  0  0  0  0  0
   38.3977  -33.8770  -15.5701 O   0  0  0  0  0  0  0  0  0  0  0  0
  1  2  2  0
  2  3  1  0
  3  4  2  0
  4  5  1  0
  1  6  1  0
  5  6  2  0
  1  7  1  0
  2  8  1  0
  4  9  1  0
  9 10  2  0
  9 11  1  0
M  CHG  2   9   1  11  -1
M  END
