
     RDKit          3D

 33 36  0  0  0  0  0  0  0  0999 V2000
   49.6903  -21.3287    7.8597 N   0  0  0  0  0  0  0  0  0  0  0  0
   45.7562  -23.9720   13.1044 C   0  0  0  0  0  0  0  0  0  0  0  0
   44.5271  -23.6479   13.9546 C   0  0  0  0  0  0  0  0  0  0  0  0
   42.9772  -21.7980   14.1837 N   0  0  0  0  0  0  0  0  0  0  0  0
   44.3124  -22.1665   14.2034 C   0  0  0  0  0  0  0  0  0  0  0  0
   43.7738  -19.5430   15.7325 O   0  0  0  0  0  0  0  0  0  0  0  0
   48.4773  -21.0186    9.8496 C   0  0  2  0  0  0  0  0  0  0  0  0
   47.0913  -22.3656   11.5584 C   0  0  0  0  0  0  0  0  0  0  0  0
   45.8402  -23.2343   11.7577 C   0  0  0  0  0  0  0  0  0  0  0  0
   47.0932  -21.5315   10.2740 C   0  0  2  0  0  0  0  0  0  0  0  0
   47.2222  -21.2546    7.6656 C   0  0  0  0  0  0  0  0  0  0  0  0
   45.2166  -21.3626   14.3979 O   0  0  0  0  0  0  0  0  0  0  0  0
   48.4785  -20.6953    8.3374 C   0  0  2  0  0  0  0  0  0  0  0  0
   49.5605  -21.9771    9.9888 N   0  0  0  0  0  0  0  0  0  0  0  0
   46.4967  -22.4477    8.8178 S   0  0  0  0  0  0  0  0  0  0  0  0
   50.3191  -22.0546    8.8440 C   0  0  0  0  0  0  0  0  0  0  0  0
   51.3813  -22.6357    8.7265 O   0  0  0  0  0  0  0  0  0  0  0  0
   42.3170  -21.4829   15.4371 C   0  0  2  0  0  0  0  0  0  0  0  0
   40.8005  -21.3876   15.3257 C   0  0  0  0  0  0  0  0  0  0  0  0
   40.4403  -20.4534   16.4574 C   0  0  0  0  0  0  0  0  0  0  0  0
   39.3277  -20.4198   16.9664 O   0  0  0  0  0  0  0  0  0  0  0  0
   41.5945  -19.5346   16.8151 C   0  0  2  0  0  0  0  0  0  0  0  0
   42.7056  -20.1027   15.9561 C   0  0  0  0  0  0  0  0  0  0  0  0
   41.9969  -19.4919   18.2715 C   0  0  0  0  0  0  0  0  0  0  0  0
   41.3973  -20.2970   19.2528 C   0  0  0  0  0  0  0  0  0  0  0  0
   41.8347  -20.2569   20.5863 C   0  0  0  0  0  0  0  0  0  0  0  0
   41.1863  -21.1270   21.6335 C   0  0  0  0  0  0  0  0  0  0  0  0
   42.4163  -21.9810   22.6555 S   0  0  0  0  0  0  0  0  0  0  0  0
   42.9004  -19.4132   20.9322 C   0  0  0  0  0  0  0  0  0  0  0  0
   43.5290  -18.6122   19.9695 C   0  0  0  0  0  0  0  0  0  0  0  0
   43.0658  -18.6559   18.6474 C   0  0  0  0  0  0  0  0  0  0  0  0
   44.6715  -17.7078   20.3538 C   0  0  0  0  0  0  0  0  0  0  0  0
   45.7529  -18.4751   21.5903 S   0  0  0  0  0  0  0  0  0  0  0  0
  2  3  1  0
  3  5  1  0
  4  5  1  0
  8  9  1  0
  2  9  1  0
  7 10  1  0
 10  8  1  1
  5 12  2  0
  1 13  1  0
 13 11  1  6
  7 13  1  0
  7 14  1  6
 11 15  1  0
 10 15  1  0
  1 16  1  0
 14 16  1  0
 16 17  2  0
 18  4  1  6
 18 19  1  0
 19 20  1  0
 20 21  2  0
 20 22  1  0
 18 23  1  0
 22 23  1  0
  6 23  2  0
 22 24  1  1
 24 25  4  0
 25 26  4  0
 26 27  1  0
 27 28  1  0
 26 29  4  0
 29 30  4  0
 24 31  4  0
 30 31  4  0
 30 32  1  0
 32 33  1  0
M  END
