8BRO_R7E_A_201
     RDKit          3D

 26 28  0  0  0  0  0  0  0  0999 V2000
   15.6741   14.2473   12.0472 N   0  0  0  0  0  0  0  0  0  0  0  0
   19.7745   14.2477   12.8083 C   0  0  2  0  0  0  0  0  0  0  0  0
   18.7029   13.6335   13.6637 C   0  0  2  0  0  0  0  0  0  0  0  0
   19.1953   12.4531   14.4578 C   0  0  0  0  0  0  0  0  0  0  0  0
   14.7920   13.3050   12.6391 C   0  0  0  0  0  0  0  0  0  0  0  0
   13.6845   12.7125   11.8697 C   0  0  0  0  0  0  0  0  0  0  0  0
   11.8313   11.6457   11.3891 C   0  0  0  0  0  0  0  0  0  0  0  0
   10.7490   11.3224    8.6531 C   0  0  0  0  0  0  0  0  0  0  0  0
   10.9887   11.6106    6.2968 C   0  0  0  0  0  0  0  0  0  0  0  0
   12.6624   12.4037    7.8086 C   0  0  0  0  0  0  0  0  0  0  0  0
   17.0127   14.5001   12.4922 C   0  0  1  0  0  0  0  0  0  0  0  0
   17.6163   13.2773   12.8389 O   0  0  0  0  0  0  0  0  0  0  0  0
   19.2037   15.4985   12.1740 C   0  0  1  0  0  0  0  0  0  0  0  0
   20.1067   16.1291   11.3224 O   0  0  0  0  0  0  0  0  0  0  0  0
   17.8972   15.1610   11.4784 C   0  0  2  0  0  0  0  0  0  0  0  0
   17.2908   16.3404   11.0383 O   0  0  0  0  0  0  0  0  0  0  0  0
   20.2895   13.3636   11.8702 O   0  0  0  0  0  0  0  0  0  0  0  0
   14.9960   12.9956   13.8527 O   0  0  0  0  0  0  0  0  0  0  0  0
   13.5619   12.7606   10.5661 O   0  0  0  0  0  0  0  0  0  0  0  0
   12.4747   12.1366   10.2644 C   0  0  0  0  0  0  0  0  0  0  0  0
   12.6365   12.0300   12.4464 C   0  0  0  0  0  0  0  0  0  0  0  0
   11.9378   11.9417    8.9019 C   0  0  0  0  0  0  0  0  0  0  0  0
   12.1967   12.2429    6.5062 C   0  0  0  0  0  0  0  0  0  0  0  0
   10.2445   11.1391    7.3750 C   0  0  0  0  0  0  0  0  0  0  0  0
    8.9318   10.4501    7.1752 C   0  0  0  0  0  0  0  0  0  0  0  0
    7.9154   11.4782    7.1207 N   0  0  0  0  0  0  0  0  0  0  0  0
  2  3  1  0
  3  4  1  6
  1  5  1  0
  5  6  1  0
 11  1  1  6
  3 12  1  0
 11 12  1  0
  2 13  1  0
 13 14  1  6
 13 15  1  0
 11 15  1  0
 15 16  1  1
  2 17  1  6
  5 18  2  0
  6 19  1  0
 19 20  1  0
  7 20  2  0
  6 21  2  0
  7 21  1  0
 20 22  1  0
 10 22  1  0
  8 22  2  0
 10 23  2  0
  9 23  1  0
  8 24  1  0
  9 24  2  0
 24 25  1  0
 25 26  1  0
M  END
$$$$
