1J3J_CP6_A_609
     RDKit          3D

 17 18  0  0  0  0  0  0  0  0999 V2000
   29.7883    1.4326   26.1798 N   0  0  0  0  0  0  0  0  0  0  0  0
   29.3398    0.4157   25.3357 C   0  0  0  0  0  0  0  0  0  0  0  0
   30.2295    2.6190   25.6344 C   0  0  0  0  0  0  0  0  0  0  0  0
   30.1460    2.8622   24.1636 C   0  0  0  0  0  0  0  0  0  0  0  0
   29.6673    1.6895   23.3643 C   0  0  0  0  0  0  0  0  0  0  0  0
   29.2419    0.5319   23.9447 N   0  0  0  0  0  0  0  0  0  0  0  0
   30.5667    4.0888   23.5257 C   0  0  0  0  0  0  0  0  0  0  0  0
   31.8450    4.2759   22.9737 C   0  0  0  0  0  0  0  0  0  0  0  0
   32.2245    5.4956   22.3662 C   0  0  0  0  0  0  0  0  0  0  0  0
   31.2939    6.6030   22.3088 C   0  0  0  0  0  0  0  0  0  0  0  0
   30.0116    6.4682   22.8317 C   0  0  0  0  0  0  0  0  0  0  0  0
   29.6474    5.2248   23.4317 C   0  0  0  0  0  0  0  0  0  0  0  0
   30.6723    3.6239   26.4220 N   0  0  0  0  0  0  0  0  0  0  0  0
   28.8994   -0.7838   25.9141 N   0  0  0  0  0  0  0  0  0  0  0  0
   29.5762    1.8431   21.8702 C   0  0  0  0  0  0  0  0  0  0  0  0
   28.3574    1.3272   21.1378 C   0  0  0  0  0  0  0  0  0  0  0  0
   31.8720    7.9839   21.5866 Cl  0  0  0  0  0  0  0  0  0  0  0  0
  1  2  2  0
  1  3  1  0
  3  4  2  0
  4  5  1  0
  2  6  1  0
  5  6  2  0
  4  7  1  0
  7  8  2  0
  8  9  1  0
  9 10  2  0
 10 11  1  0
  7 12  1  0
 11 12  2  0
  3 13  1  0
  2 14  1  0
  5 15  1  0
 15 16  1  0
 10 17  1  0
M  END
