7MOI_HPS_A_501
     RDKit          3D

 11 11  0  0  0  0  0  0  0  0999 V2000
   28.5499   24.9352  -14.9382 C   0  0  0  0  0  0  0  0  0  0  0  0
   29.4330   23.8640  -14.9106 C   0  0  0  0  0  0  0  0  0  0  0  0
   30.6479   24.0631  -14.2883 C   0  0  0  0  0  0  0  0  0  0  0  0
   30.9841   25.2898  -13.7067 C   0  0  0  0  0  0  0  0  0  0  0  0
   30.1000   26.3433  -13.7409 C   0  0  0  0  0  0  0  0  0  0  0  0
   28.8931   26.1359  -14.3625 C   0  0  0  0  0  0  0  0  0  0  0  0
   30.3581   27.5793  -13.1916 O   0  0  0  0  0  0  0  0  0  0  0  0
   29.7056   28.9723  -13.9413 P   0  0  1  0  0  5  0  0  0  0  0  0
   28.0303   29.0114  -13.6861 O   0  0  0  0  0  0  0  0  0  0  0  0
   30.3862   30.3757  -13.2876 O   0  0  0  0  0  0  0  0  0  0  0  0
   29.9844   28.9264  -15.4267 O   0  0  0  0  0  0  0  0  0  0  0  0
  1  2  2  0
  2  3  1  0
  3  4  2  0
  4  5  1  0
  1  6  1  0
  5  6  2  0
  5  7  1  0
  7  8  1  0
  8  9  1  6
  8 10  1  0
  8 11  2  0
M  END
$$$$
