6ZCY_QF8_A_701
     RDKit          3D

 59 63  0  0  0  0  0  0  0  0999 V2000
    4.5921    3.6097   13.2352 C   0  0  0  0  0  0  0  0  0  0  0  0
    4.6701    2.8386   12.0458 C   0  0  0  0  0  0  0  0  0  0  0  0
    4.7001    1.5238   12.4434 C   0  0  0  0  0  0  0  0  0  0  0  0
   -0.2540   -6.7017   15.0402 N   0  0  0  0  0  4  0  0  0  0  0  0
    2.9784   -1.0288   15.6292 C   0  0  0  0  0  0  0  0  0  0  0  0
    1.2270   -2.9075   15.5626 C   0  0  0  0  0  0  0  0  0  0  0  0
   -0.1518   -3.0099   15.3586 C   0  0  0  0  0  0  0  0  0  0  0  0
   -0.7526   -4.2438   15.1646 C   0  0  0  0  0  0  0  0  0  0  0  0
    0.0419   -5.3822   15.2137 C   0  0  0  0  0  0  0  0  0  0  0  0
    1.4210   -5.3049   15.4333 C   0  0  0  0  0  0  0  0  0  0  0  0
    2.0164   -4.0620   15.6453 C   0  0  0  0  0  0  0  0  0  0  0  0
    1.8678   -6.6716   15.4140 C   0  0  0  0  0  0  0  0  0  0  0  0
   -1.5555   -7.3079   14.7993 C   0  0  0  0  0  0  0  0  0  0  0  0
    3.2592   -7.1704   15.6227 C   0  0  0  0  0  0  0  0  0  0  0  0
    5.9458    5.3661   11.7075 C   0  0  0  0  0  0  0  0  0  0  0  0
    5.2515    6.6504   11.0564 C   0  0  0  0  0  0  0  0  0  0  0  0
    5.8228    5.1861    9.3212 C   0  0  0  0  0  0  0  0  0  0  0  0
    3.6051   -8.2489   15.1453 O   0  0  0  0  0  0  0  0  0  0  0  0
    4.0756   -6.3605   16.2994 N   0  0  0  0  0  0  0  0  0  0  0  0
    3.6701   -5.7193   17.5436 C   0  0  0  0  0  0  0  0  0  0  0  0
    0.8492   -7.5024   15.2115 N   0  0  0  0  0  0  0  0  0  0  0  0
    1.7371   -1.5956   15.6934 N   0  0  0  0  0  0  0  0  0  0  0  0
    3.8839   -1.5085   16.4968 N   0  0  0  0  0  0  0  0  0  0  0  0
    5.1170   -0.9739   16.4083 C   0  0  0  0  0  0  0  0  0  0  0  0
    5.4776    0.0121   15.5043 C   0  0  0  0  0  0  0  0  0  0  0  0
    3.1767   -0.0627   14.7209 N   0  0  0  0  0  0  0  0  0  0  0  0
    4.4207    0.4359   14.6669 C   0  0  0  0  0  0  0  0  0  0  0  0
    4.5811    1.5468   13.7945 N   0  0  0  0  0  4  0  0  0  0  0  0
    4.4617    2.8134   14.2766 N   0  0  0  0  0  0  0  0  0  0  0  0
    4.5719    5.0911   13.4318 C   0  0  0  0  0  0  0  0  0  0  0  0
    4.7734    3.3698   10.8196 N   0  0  0  0  0  0  0  0  0  0  0  0
    5.8747    4.3145   10.5972 C   0  0  2  0  0  0  0  0  0  0  0  0
    4.9181    6.2959    9.6606 N   0  0  0  0  0  0  0  0  0  0  0  0
    4.7937    0.6919   11.8399 H   0  0  0  0  0  0  0  0  0  0  0  0
   -0.7304   -2.1554   15.3524 H   0  0  0  0  0  0  0  0  0  0  0  0
   -1.7668   -4.3152   14.9878 H   0  0  0  0  0  0  0  0  0  0  0  0
    3.0235   -3.9936   15.8600 H   0  0  0  0  0  0  0  0  0  0  0  0
   -2.2921   -6.5395   14.6908 H   0  0  0  0  0  0  0  0  0  0  0  0
   -1.8146   -7.9363   15.6255 H   0  0  0  0  0  0  0  0  0  0  0  0
   -1.5161   -7.8933   13.9045 H   0  0  0  0  0  0  0  0  0  0  0  0
    5.4106    5.0417   12.5753 H   0  0  0  0  0  0  0  0  0  0  0  0
    6.9463    5.5566   12.0354 H   0  0  0  0  0  0  0  0  0  0  0  0
    5.9250    7.4817   11.0742 H   0  0  0  0  0  0  0  0  0  0  0  0
    4.3738    6.9293   11.6012 H   0  0  0  0  0  0  0  0  0  0  0  0
    5.4371    4.6242    8.4963 H   0  0  0  0  0  0  0  0  0  0  0  0
    6.7923    5.5307    9.0277 H   0  0  0  0  0  0  0  0  0  0  0  0
    4.9793   -6.1910   15.9475 H   0  0  0  0  0  0  0  0  0  0  0  0
    2.6676   -6.0070   17.7829 H   0  0  0  0  0  0  0  0  0  0  0  0
    3.7185   -4.6565   17.4293 H   0  0  0  0  0  0  0  0  0  0  0  0
    4.3263   -6.0236   18.3321 H   0  0  0  0  0  0  0  0  0  0  0  0
    1.0307   -0.9339   15.8735 H   0  0  0  0  0  0  0  0  0  0  0  0
    5.8408   -1.3216   17.0565 H   0  0  0  0  0  0  0  0  0  0  0  0
    6.4314    0.4019   15.4475 H   0  0  0  0  0  0  0  0  0  0  0  0
    4.6897    5.5780   12.4863 H   0  0  0  0  0  0  0  0  0  0  0  0
    5.3729    5.3755   14.0817 H   0  0  0  0  0  0  0  0  0  0  0  0
    3.6387    5.3802   13.8682 H   0  0  0  0  0  0  0  0  0  0  0  0
    4.1406    3.1374   10.1021 H   0  0  0  0  0  0  0  0  0  0  0  0
    6.6997    3.6354   10.5397 H   0  0  0  0  0  0  0  0  0  0  0  0
    5.0779    7.0904    9.0412 H   0  0  0  0  0  0  0  0  0  0  0  0
  1  2  4  0
  2  3  4  0
  6  7  4  0
  7  8  4  0
  4  9  4  0
  8  9  4  0
  9 10  4  0
 10 11  4  0
  6 11  4  0
 10 12  4  0
  4 13  1  0
 12 14  1  0
 15 16  1  0
 14 18  2  0
 14 19  1  0
 19 20  1  0
 12 21  4  0
  4 21  4  0
  6 22  1  0
  5 22  1  0
  5 23  4  0
 23 24  4  0
 24 25  4  0
  5 26  4  0
 26 27  4  0
 25 27  4  0
  3 28  4  0
 27 28  1  0
  1 29  4  0
 28 29  4  0
  1 30  1  0
  2 31  1  0
 15 32  1  0
 32 31  1  0
 17 32  1  0
 16 33  1  0
 17 33  1  0
  3 34  1  0
  7 35  1  0
  8 36  1  0
 11 37  1  0
 13 38  1  0
 13 39  1  0
 13 40  1  0
 15 41  1  0
 15 42  1  0
 16 43  1  0
 16 44  1  0
 17 45  1  0
 17 46  1  0
 19 47  1  0
 20 48  1  0
 20 49  1  0
 20 50  1  0
 22 51  1  0
 24 52  1  0
 25 53  1  0
 30 54  1  0
 30 55  1  0
 30 56  1  0
 31 57  1  0
 32 58  1  6
 33 59  1  0
M  CHG  2   4   1  28   1
M  END
