
     RDKit          3D

 44 45  0  0  0  0  0  0  0  0999 V2000
    7.9383  -12.2873    6.5621 N   0  0  0  0  0  0  0  0  0  0  0  0
    2.6688  -14.1386    4.0582 C   0  0  0  0  0  0  0  0  0  0  0  0
    2.5565  -13.6864    2.5886 C   0  0  2  0  0  0  0  0  0  0  0  0
    8.8509  -11.2028    4.7915 N   0  0  0  0  0  0  0  0  0  0  0  0
    2.7017  -14.9230    1.6835 C   0  0  0  0  0  0  0  0  0  0  0  0
   13.4874  -14.8807    1.7298 O   0  0  0  0  0  0  0  0  0  0  0  0
    8.3630  -14.5756    4.3329 C   0  0  1  0  0  0  0  0  0  0  0  0
    5.6110  -14.4547    6.3619 C   0  0  0  0  0  0  0  0  0  0  0  0
    4.1283  -14.3554    6.0190 C   0  0  0  0  0  0  0  0  0  0  0  0
    3.9063  -13.9672    4.6393 N   0  0  0  0  0  0  0  0  0  0  0  0
    6.3302  -15.5481    5.5593 C   0  0  0  0  0  0  0  0  0  0  0  0
    1.7609  -14.7580    4.6130 O   0  0  0  0  0  0  0  0  0  0  0  0
    7.8529  -15.3732    5.5431 C   0  0  0  0  0  0  0  0  0  0  0  0
    2.0552  -10.9282    2.3427 O   0  0  0  0  0  0  0  0  0  0  0  0
    8.1978  -12.2625    5.3041 C   0  0  0  0  0  0  0  0  0  0  0  0
    3.5218  -12.6619    2.1705 N   0  0  0  0  0  0  0  0  0  0  0  0
    7.9233  -13.1865    4.3703 N   0  0  0  0  0  0  0  0  0  0  0  0
    9.9051  -14.5865    4.3270 C   0  0  0  0  0  0  0  0  0  0  0  0
   10.5777  -13.6954    4.8418 O   0  0  0  0  0  0  0  0  0  0  0  0
    2.2771  -14.6192    0.2418 C   0  0  0  0  0  0  0  0  0  0  0  0
    0.8002  -14.2264    0.1733 C   0  0  0  0  0  0  0  0  0  0  0  0
    0.3129  -14.1680   -1.2674 C   0  0  0  0  0  0  0  0  0  0  0  0
    3.1561  -11.3481    1.9892 C   0  0  0  0  0  0  0  0  0  0  0  0
    4.0927  -10.4892    1.1045 C   0  0  2  0  0  0  0  0  0  0  0  0
    3.8317  -10.8146   -0.3828 C   0  0  0  0  0  0  0  0  0  0  0  0
    3.4742   -9.6142   -1.2670 C   0  0  0  0  0  0  0  0  0  0  0  0
    2.4523   -8.6733   -0.6218 C   0  0  0  0  0  0  0  0  0  0  0  0
    3.1383   -7.4477   -0.0215 C   0  0  0  0  0  0  0  0  0  0  0  0
    6.4305   -9.7211    0.9559 C   0  0  0  0  0  0  0  0  0  0  0  0
    7.8932  -10.0816    1.1323 C   0  0  0  0  0  0  0  0  0  0  0  0
    8.4110  -11.2220    0.2828 C   0  0  0  0  0  0  0  0  0  0  0  0
    9.6139  -11.8477    0.6552 C   0  0  0  0  0  0  0  0  0  0  0  0
   10.1873  -12.8620   -0.1312 C   0  0  0  0  0  0  0  0  0  0  0  0
   11.4846  -13.5030    0.2862 C   0  0  0  0  0  0  0  0  0  0  0  0
   12.3196  -14.9485    2.1020 C   0  0  0  0  0  0  0  0  0  0  0  0
   11.9051  -15.6984    3.3814 C   0  0  0  0  0  0  0  0  0  0  0  0
    9.5250  -13.2749   -1.2901 C   0  0  0  0  0  0  0  0  0  0  0  0
    8.3380  -12.6524   -1.6796 C   0  0  0  0  0  0  0  0  0  0  0  0
    7.7962  -11.6210   -0.9099 C   0  0  0  0  0  0  0  0  0  0  0  0
    2.6635   -6.2310   -0.6694 N   0  0  0  0  0  0  0  0  0  0  0  0
    5.5206  -10.6632    1.3969 N   0  0  0  0  0  0  0  0  0  0  0  0
   11.2743  -14.3876    1.4058 N   0  0  0  0  0  0  0  0  0  0  0  0
   10.4677  -15.6427    3.6410 N   0  0  0  0  0  0  0  0  0  0  0  0
    6.0869   -8.6432    0.4748 O   0  0  0  0  0  0  0  0  0  0  0  0
  2  3  1  0
  3  5  1  6
  8  9  1  0
  2 10  1  0
  9 10  1  0
  8 11  1  0
  2 12  2  0
  7 13  1  0
 11 13  1  0
  1 15  2  0
  4 15  1  0
  3 16  1  0
  7 17  1  1
 15 17  1  0
  7 18  1  0
 18 19  2  0
  5 20  1  0
 20 21  1  0
 21 22  1  0
 16 23  1  0
 14 23  2  0
 23 24  1  0
 24 25  1  6
 25 26  1  0
 26 27  1  0
 27 28  1  0
 29 30  1  0
 30 31  1  0
 31 32  4  0
 32 33  4  0
 33 34  1  0
  6 35  2  0
 35 36  1  0
 33 37  4  0
 37 38  4  0
 31 39  4  0
 38 39  4  0
 28 40  1  0
 29 41  1  0
 24 41  1  0
 34 42  1  0
 35 42  1  0
 36 43  1  0
 18 43  1  0
 29 44  2  0
M  END
