7RPZ_6IC_A_202
     RDKit          3D

 44 51  0  0  0  0  0  0  0  0999 V2000
    5.5658   -0.5885  -18.4538 C   0  0  0  0  0  0  0  0  0  0  0  0
    6.6654   -1.4087  -18.5440 C   0  0  0  0  0  0  0  0  0  0  0  0
    4.7733   -0.7490  -17.4245 C   0  0  0  0  0  0  0  0  0  0  0  0
    6.0129   -2.4642  -16.4136 C   0  0  0  0  0  0  0  0  0  0  0  0
    4.8528   -1.5945  -16.4473 C   0  0  0  0  0  0  0  0  0  0  0  0
    6.9664   -2.4094  -17.5290 C   0  0  0  0  0  0  0  0  0  0  0  0
    8.2004   -4.1874  -16.6812 C   0  0  0  0  0  0  0  0  0  0  0  0
    0.7530   -2.4371   -9.4360 C   0  0  0  0  0  0  0  0  0  0  0  0
    2.3658   -4.1236   -8.3902 C   0  0  0  0  0  0  0  0  0  0  0  0
    8.0198   -3.2716  -17.6283 C   0  0  0  0  0  0  0  0  0  0  0  0
    4.5429   -3.4566  -11.4910 C   0  0  0  0  0  0  0  0  0  0  0  0
    5.5327   -2.4883  -11.7649 C   0  0  0  0  0  0  0  0  0  0  0  0
    5.4671   -1.7607   -9.6220 C   0  0  0  0  0  0  0  0  0  0  0  0
    4.0326   -3.4240  -10.1367 C   0  0  0  0  0  0  0  0  0  0  0  0
    4.2186   -4.4206  -12.4652 C   0  0  0  0  0  0  0  0  0  0  0  0
    5.5394   -3.4501  -14.0505 C   0  0  0  0  0  0  0  0  0  0  0  0
    5.9831   -2.4857  -13.0513 C   0  0  0  0  0  0  0  0  0  0  0  0
    6.2423   -3.4126  -15.3700 C   0  0  0  0  0  0  0  0  0  0  0  0
    5.5955   -1.1819   -7.3013 C   0  0  0  0  0  0  0  0  0  0  0  0
    2.0830   -4.9927  -10.7918 C   0  0  0  0  0  0  0  0  0  0  0  0
    0.6746   -4.4297  -10.6795 C   0  0  2  0  0  0  0  0  0  0  0  0
    0.9139   -3.6832   -8.5383 C   0  0  2  0  0  0  0  0  0  0  0  0
    0.5928   -2.8980  -10.7897 C   0  0  0  0  0  0  0  0  0  0  0  0
    7.4025   -4.3080  -15.5200 C   0  0  0  0  0  0  0  0  0  0  0  0
    6.6628   -0.4122   -6.4263 C   0  0  1  0  0  0  0  0  0  0  0  0
    7.1283    0.8872   -7.1672 C   0  0  0  0  0  0  0  0  0  0  0  0
    8.6396    0.8914   -6.9608 C   0  0  2  0  0  0  0  0  0  0  0  0
    9.0271   -0.5713   -6.9872 C   0  0  0  0  0  0  0  0  0  0  0  0
    8.1325   -1.4185   -4.7983 C   0  0  0  0  0  0  0  0  0  0  0  0
    6.7329   -1.3268   -4.2244 C   0  0  0  0  0  0  0  0  0  0  0  0
    6.0703   -0.1430   -5.0278 C   0  0  0  0  0  0  0  0  0  0  0  0
    3.7470   -1.6866  -15.3961 C   0  0  0  0  0  0  0  0  0  0  0  0
    2.8472   -1.7419  -14.6047 C   0  0  0  0  0  0  0  0  0  0  0  0
    6.9073   -1.5040  -13.3702 F   0  0  0  0  0  0  0  0  0  0  0  0
    8.9020    1.4612   -5.7202 F   0  0  0  0  0  0  0  0  0  0  0  0
    3.6241    0.0831  -17.4089 F   0  0  0  0  0  0  0  0  0  0  0  0
    5.9820   -1.5986  -10.8374 N   0  0  0  0  0  0  0  0  0  0  0  0
    4.5221   -2.6104   -9.2173 N   0  0  0  0  0  0  0  0  0  0  0  0
    4.7701   -4.4204  -13.6914 N   0  0  0  0  0  0  0  0  0  0  0  0
    2.9912   -4.2824   -9.7477 N   0  0  0  0  0  0  0  0  0  0  0  0
    0.1532   -4.6994   -9.3115 N   0  0  0  0  0  0  0  0  0  0  0  0
    7.9182   -1.2414   -6.2530 N   0  0  0  0  0  0  0  0  0  0  0  0
    5.9982   -0.9531   -8.6574 O   0  0  0  0  0  0  0  0  0  0  0  0
    9.1887   -5.1776  -16.7465 O   0  0  0  0  0  0  0  0  0  0  0  0
  1  2  2  0
  1  3  1  0
  4  5  1  0
  3  5  2  0
  4  6  2  0
  2  6  1  0
  7 10  2  0
  6 10  1  0
 11 12  1  0
 11 14  1  0
 11 15  2  0
 16 17  1  0
 12 17  2  0
 16 18  1  0
  4 18  1  0
 21 20  1  1
 22  9  1  6
  8 22  1  0
 21 23  1  0
  8 23  1  0
  7 24  1  0
 18 24  2  0
 25 19  1  6
 25 26  1  0
 26 27  1  0
 27 28  1  0
 29 30  1  0
 30 31  1  0
 25 31  1  0
  5 32  1  0
 32 33  3  0
 17 34  1  0
 27 35  1  1
  3 36  1  0
 12 37  1  0
 13 37  2  0
 14 38  2  0
 13 38  1  0
 15 39  1  0
 16 39  2  0
  9 40  1  0
 14 40  1  0
 20 40  1  0
 22 41  1  0
 21 41  1  0
 29 42  1  0
 28 42  1  0
 25 42  1  0
 13 43  1  0
 19 43  1  0
  7 44  1  0
M  END
