8F4J_PHO_D_402
     RDKit          3D

 64 69  0  0  0  0  0  0  0  0999 V2000
  -56.6020   63.7140  344.9750 C   0  0  0  0  0  0  0  0  0  0  0  0
  -54.7170   63.1640  349.3740 C   0  0  0  0  0  0  0  0  0  0  0  0
  -53.5770   58.5160  348.1890 C   0  0  0  0  0  0  0  0  0  0  0  0
  -55.3030   59.0820  343.6410 C   0  0  0  0  0  0  0  0  0  0  0  0
  -55.5210   63.1780  347.0740 N   0  0  0  0  0  0  0  0  0  0  0  0
  -56.2890   64.0390  346.2420 C   0  0  0  0  0  0  0  0  0  0  0  0
  -56.5830   65.3470  346.9420 C   0  0  2  0  0  0  0  0  0  0  0  0
  -55.6710   65.2590  348.2020 C   0  0  1  0  0  0  0  0  0  0  0  0
  -55.2940   63.7780  348.2220 C   0  0  0  0  0  0  0  0  0  0  0  0
  -54.4710   66.1450  348.0270 C   0  0  0  0  0  0  0  0  0  0  0  0
  -58.0410   65.5200  347.2920 C   0  0  0  0  0  0  0  0  0  0  0  0
  -58.2060   66.7800  348.1210 C   0  0  0  0  0  0  0  0  0  0  0  0
  -59.6230   66.8900  348.5810 C   0  0  0  0  0  0  0  0  0  0  0  0
  -60.4920   66.0150  348.5750 O   0  0  0  0  0  0  0  0  0  0  0  0
  -59.9420   68.1360  349.0340 O   0  0  0  0  0  0  0  0  0  0  0  0
  -54.3750   60.8760  348.4460 N   0  0  0  0  0  0  0  0  0  0  0  0
  -54.3260   61.8610  349.4380 C   0  0  0  0  0  0  0  0  0  0  0  0
  -53.7310   61.2240  350.6390 C   0  0  0  0  0  0  0  0  0  0  0  0
  -53.4030   59.9190  350.3190 C   0  0  0  0  0  0  0  0  0  0  0  0
  -53.8090   59.6620  348.8980 C   0  0  0  0  0  0  0  0  0  0  0  0
  -53.5250   62.0150  351.8510 C   0  0  0  0  0  0  0  0  0  0  0  0
  -52.7390   58.8960  351.0840 C   0  0  0  0  0  0  0  0  0  0  0  0
  -52.6680   58.8410  352.4120 C   0  0  0  0  0  0  0  0  0  0  0  0
  -54.6570   59.0380  346.0340 N   0  0  0  0  0  0  0  0  0  0  0  0
  -53.9790   58.2180  346.8350 C   0  0  0  0  0  0  0  0  0  0  0  0
  -53.5790   56.9830  346.0850 C   0  0  0  0  0  0  0  0  0  0  0  0
  -54.0150   57.1700  344.7840 C   0  0  0  0  0  0  0  0  0  0  0  0
  -54.7310   58.4780  344.7320 C   0  0  0  0  0  0  0  0  0  0  0  0
  -52.7910   55.8770  346.6390 C   0  0  0  0  0  0  0  0  0  0  0  0
  -53.8720   56.2630  343.6300 C   0  0  0  0  0  0  0  0  0  0  0  0
  -55.2020   55.6360  343.2260 C   0  0  0  0  0  0  0  0  0  0  0  0
  -55.9820   61.1940  344.7740 N   0  0  0  0  0  0  0  0  0  0  0  0
  -55.9010   60.3770  343.6220 C   0  0  0  0  0  0  0  0  0  0  0  0
  -56.4620   61.1030  342.5080 C   0  0  0  0  0  0  0  0  0  0  0  0
  -56.7700   62.3940  342.9930 C   0  0  0  0  0  0  0  0  0  0  0  0
  -56.4030   62.4190  344.3900 C   0  0  0  0  0  0  0  0  0  0  0  0
  -56.6560   60.6310  341.1340 C   0  0  0  0  0  0  0  0  0  0  0  0
  -57.2670   63.6980  342.6090 C   0  0  0  0  0  0  0  0  0  0  0  0
  -57.6840   64.0870  341.5300 O   0  0  0  0  0  0  0  0  0  0  0  0
  -57.1310   64.6100  343.8700 C   0  0  2  0  0  0  0  0  0  0  0  0
  -56.2140   65.7580  343.5450 C   0  0  0  0  0  0  0  0  0  0  0  0
  -56.4920   66.8470  343.0560 O   0  0  0  0  0  0  0  0  0  0  0  0
  -54.8940   65.4930  343.8450 O   0  0  0  0  0  0  0  0  0  0  0  0
  -53.9450   66.4630  343.4190 C   0  0  0  0  0  0  0  0  0  0  0  0
  -61.1560   68.2710  349.8130 C   0  0  0  0  0  0  0  0  0  0  0  0
  -60.8730   67.8470  351.2100 C   0  0  0  0  0  0  0  0  0  0  0  0
  -61.7510   67.0820  351.8640 C   0  0  0  0  0  0  0  0  0  0  0  0
  -62.9890   66.6790  351.1740 C   0  0  0  0  0  0  0  0  0  0  0  0
  -61.5590   66.6040  353.2720 C   0  0  0  0  0  0  0  0  0  0  0  0
  -61.3860   65.0890  353.4380 C   0  0  0  0  0  0  0  0  0  0  0  0
  -61.5500   64.6740  354.8960 C   0  0  0  0  0  0  0  0  0  0  0  0
  -60.9660   63.3020  355.2190 C   0  0  2  0  0  0  0  0  0  0  0  0
  -61.6080   62.2510  354.3560 C   0  0  0  0  0  0  0  0  0  0  0  0
  -61.1010   62.9270  356.6960 C   0  0  0  0  0  0  0  0  0  0  0  0
  -60.3580   63.8780  357.6310 C   0  0  0  0  0  0  0  0  0  0  0  0
  -58.8420   63.8320  357.4850 C   0  0  0  0  0  0  0  0  0  0  0  0
  -58.1360   64.6810  358.5400 C   0  0  2  0  0  0  0  0  0  0  0  0
  -58.2860   66.1790  358.2870 C   0  0  0  0  0  0  0  0  0  0  0  0
  -56.6590   64.3390  358.5790 C   0  0  0  0  0  0  0  0  0  0  0  0
  -56.3540   63.0220  359.2630 C   0  0  0  0  0  0  0  0  0  0  0  0
  -54.8420   62.8270  359.3390 C   0  0  0  0  0  0  0  0  0  0  0  0
  -54.4720   61.6120  360.1790 C   0  0  0  0  0  0  0  0  0  0  0  0
  -52.9730   61.4310  360.2040 C   0  0  0  0  0  0  0  0  0  0  0  0
  -55.1210   60.3910  359.5760 C   0  0  0  0  0  0  0  0  0  0  0  0
  1  6  1  0
  5  6  2  0
  6  7  1  0
  7  8  1  0
  2  9  2  0
  5  9  1  0
  8  9  1  0
  8 10  1  6
  7 11  1  1
 11 12  1  0
 12 13  1  0
 13 14  2  0
 13 15  1  0
  2 17  1  0
 16 17  1  0
 17 18  2  0
 18 19  1  0
  3 20  1  0
 16 20  1  0
 19 20  2  0
 18 21  1  0
 19 22  1  0
 22 23  2  0
  3 25  2  0
 24 25  1  0
 25 26  1  0
 26 27  2  0
  4 28  1  0
 24 28  2  0
 27 28  1  0
 26 29  1  0
 27 30  1  0
 30 31  1  0
  4 33  2  0
 32 33  1  0
 33 34  1  0
 34 35  2  0
  1 36  2  0
 32 36  1  0
 35 36  1  0
 34 37  1  0
 35 38  1  0
 38 39  2  0
  1 40  1  0
 38 40  1  0
 40 41  1  6
 41 42  2  0
 41 43  1  0
 43 44  1  0
 15 45  1  0
 45 46  1  0
 46 47  2  0
 47 48  1  0
 47 49  1  0
 49 50  1  0
 50 51  1  0
 51 52  1  0
 52 53  1  6
 52 54  1  0
 54 55  1  0
 55 56  1  0
 56 57  1  0
 57 58  1  6
 57 59  1  0
 59 60  1  0
 60 61  1  0
 61 62  1  0
 62 63  1  0
 62 64  1  0
M  END
$$$$
