1V0P_PVB_A_1287
     RDKit          3D

 30 32  0  0  0  0  0  0  0  0999 V2000
   25.2561   16.2845   16.3381 N   0  0  0  0  0  0  0  0  0  0  0  0
   29.0740   18.9738   13.8272 C   0  0  1  0  0  0  0  0  0  0  0  0
   28.1139   18.8763   14.9561 N   0  0  0  0  0  0  0  0  0  0  0  0
   27.2125   17.9087   15.2824 C   0  0  0  0  0  0  0  0  0  0  0  0
   26.8048   16.7145   14.5583 N   0  0  0  0  0  0  0  0  0  0  0  0
   25.8593   15.9153   15.1367 C   0  0  0  0  0  0  0  0  0  0  0  0
   25.5794   17.4068   17.0541 C   0  0  0  0  0  0  0  0  0  0  0  0
   26.5895   18.2635   16.5696 C   0  0  0  0  0  0  0  0  0  0  0  0
   27.1632   19.4394   16.9435 N   0  0  0  0  0  0  0  0  0  0  0  0
   28.0649   19.7760   15.9843 C   0  0  0  0  0  0  0  0  0  0  0  0
   24.9684   17.7313   18.2455 N   0  0  0  0  0  0  0  0  0  0  0  0
   24.0589   16.9418   18.8869 C   0  0  0  0  0  0  0  0  0  0  0  0
   24.1290   16.8005   20.2879 C   0  0  0  0  0  0  0  0  0  0  0  0
   23.2450   15.9653   20.9556 C   0  0  0  0  0  0  0  0  0  0  0  0
   22.2822   15.2455   20.2230 C   0  0  0  0  0  0  0  0  0  0  0  0
   22.2374   15.3748   18.7391 C   0  0  0  0  0  0  0  0  0  0  0  0
   21.2375   14.6018   17.8909 Cl  0  0  0  0  0  0  0  0  0  0  0  0
   23.1375   16.2396   18.1376 C   0  0  0  0  0  0  0  0  0  0  0  0
   21.3297   14.3371   20.9253 C   0  0  0  0  0  0  0  0  0  0  0  0
   21.7329   13.2540   21.3811 O   0  0  0  0  0  0  0  0  0  0  0  0
   20.1378   14.6575   21.0474 O   0  0  0  0  0  0  0  0  0  0  0  0
   25.4347   14.7758   14.5073 N   0  0  0  0  0  0  0  0  0  0  0  0
   24.3420   14.0483   15.1524 C   0  0  2  0  0  0  0  0  0  0  0  0
   24.6607   12.5878   15.5336 C   0  0  2  0  0  0  0  0  0  0  0  0
   26.1675   12.3249   15.7805 C   0  0  0  0  0  0  0  0  0  0  0  0
   23.9323   11.5256   14.7198 C   0  0  0  0  0  0  0  0  0  0  0  0
   22.9330   14.3277   14.5974 C   0  0  0  0  0  0  0  0  0  0  0  0
   22.9771   14.1264   13.2096 O   0  0  0  0  0  0  0  0  0  0  0  0
   29.3401   17.5452   13.3888 C   0  0  0  0  0  0  0  0  0  0  0  0
   28.6009   19.7602   12.6117 C   0  0  0  0  0  0  0  0  0  0  0  0
  2  3  1  0
  3  4  1  0
  4  5  2  0
  1  6  2  0
  5  6  1  0
  1  7  1  0
  4  8  1  0
  7  8  2  0
  8  9  1  0
  3 10  1  0
  9 10  2  0
  7 11  1  0
 11 12  1  0
 12 13  2  0
 13 14  1  0
 14 15  2  0
 15 16  1  0
 16 17  1  0
 12 18  1  0
 16 18  2  0
 15 19  1  0
 19 20  1  0
 19 21  2  0
  6 22  1  0
 22 23  1  0
 23 24  1  0
 24 25  1  6
 24 26  1  0
 23 27  1  6
 27 28  1  0
  2 29  1  6
  2 30  1  0
M  END
