7KFO_IAC_A_201
     RDKit          3D

 13 14  0  0  0  0  0  0  0  0999 V2000
   -2.1866   49.9738   34.8594 C   0  0  0  0  0  0  0  0  0  0  0  0
   -1.0322   50.0837   34.1195 C   0  0  0  0  0  0  0  0  0  0  0  0
   -0.8338   51.1367   33.2607 C   0  0  0  0  0  0  0  0  0  0  0  0
   -1.8366   52.1031   33.1433 C   0  0  0  0  0  0  0  0  0  0  0  0
   -3.0009   52.0178   33.8619 C   0  0  0  0  0  0  0  0  0  0  0  0
   -3.1814   50.9436   34.7323 C   0  0  0  0  0  0  0  0  0  0  0  0
   -0.2417   48.9674   34.4419 C   0  0  0  0  0  0  0  0  0  0  0  0
   -0.9475   48.2379   35.3569 C   0  0  0  0  0  0  0  0  0  0  0  0
    1.1191   48.7238   33.8648 C   0  0  0  0  0  0  0  0  0  0  0  0
    1.6816   47.4362   34.3028 C   0  0  0  0  0  0  0  0  0  0  0  0
   -2.1326   48.8608   35.6047 N   0  0  0  0  0  0  0  0  0  0  0  0
    3.0569   47.2783   34.3813 O   0  0  0  0  0  0  0  0  0  0  0  0
    0.9017   46.4872   34.5984 O   0  0  0  0  0  0  0  0  0  0  0  0
  1  2  1  0
  2  3  2  0
  3  4  1  0
  4  5  2  0
  1  6  2  0
  5  6  1  0
  2  7  1  0
  7  8  2  0
  7  9  1  0
  9 10  1  0
  1 11  1  0
  8 11  1  0
 10 12  1  0
 10 13  2  0
M  END
$$$$
