1IA1_TQ3_B_196
     RDKit          3D

 19 21  0  0  0  0  0  0  0  0999 V2000
   35.0296   -5.7053    2.7310 C   0  0  0  0  0  0  0  0  0  0  0  0
   35.6467   -6.4549    1.7510 C   0  0  0  0  0  0  0  0  0  0  0  0
   36.2330   -5.8503    0.6787 C   0  0  0  0  0  0  0  0  0  0  0  0
   36.1814   -4.5031    0.6186 N   0  0  0  0  0  0  0  0  0  0  0  0
   35.5746   -3.7870    1.5823 C   0  0  0  0  0  0  0  0  0  0  0  0
   34.9950   -4.3682    2.6431 N   0  0  0  0  0  0  0  0  0  0  0  0
   36.9196   -6.5109   -0.3676 N   0  0  0  0  0  0  0  0  0  0  0  0
   34.4371   -6.2721    3.8445 C   0  0  0  0  0  0  0  0  0  0  0  0
   34.4799   -7.6551    3.9546 C   0  0  0  0  0  0  0  0  0  0  0  0
   35.1001   -8.3902    2.9643 C   0  0  0  0  0  0  0  0  0  0  0  0
   35.6867   -7.8210    1.8587 C   0  0  0  0  0  0  0  0  0  0  0  0
   35.5782   -2.3581    1.4177 N   0  0  0  0  0  0  0  0  0  0  0  0
   36.4444   -8.9056    0.6703 S   0  0  0  0  0  0  0  0  0  0  0  0
   36.8135  -10.4985    1.3351 C   0  0  0  0  0  0  0  0  0  0  0  0
   36.8039  -10.8420    2.6600 C   0  0  0  0  0  0  0  0  0  0  0  0
   37.1137  -12.1279    3.0809 C   0  0  0  0  0  0  0  0  0  0  0  0
   37.4467  -13.1233    2.1821 C   0  0  0  0  0  0  0  0  0  0  0  0
   37.4591  -12.7861    0.8414 C   0  0  0  0  0  0  0  0  0  0  0  0
   37.1497  -11.5066    0.4381 C   0  0  0  0  0  0  0  0  0  0  0  0
  1  2  1  0
  2  3  2  0
  3  4  1  0
  4  5  2  0
  1  6  2  0
  5  6  1  0
  3  7  1  0
  1  8  1  0
  8  9  2  0
  9 10  1  0
  2 11  1  0
 10 11  2  0
  5 12  1  0
 11 13  1  0
 13 14  1  0
 14 15  2  0
 15 16  1  0
 16 17  2  0
 17 18  1  0
 14 19  1  0
 18 19  2  0
M  END
$$$$
