
     RDKit          3D

 39 42  0  0  0  0  0  0  0  0999 V2000
   64.4797   14.2843   43.5740 C   0  0  1  0  0  0  0  0  0  0  0  0
   66.0414   13.6670   41.6089 C   0  0  0  0  0  0  0  0  0  0  0  0
   66.8061   12.6200   41.0721 C   0  0  0  0  0  0  0  0  0  0  0  0
   67.9916   12.8888   40.3871 C   0  0  0  0  0  0  0  0  0  0  0  0
   68.4217   14.2018   40.2432 C   0  0  0  0  0  0  0  0  0  0  0  0
   64.7640   13.3737   42.3648 C   0  0  0  0  0  0  0  0  0  0  0  0
   67.6840   15.2533   40.7726 C   0  0  0  0  0  0  0  0  0  0  0  0
   66.4912   14.9863   41.4487 C   0  0  0  0  0  0  0  0  0  0  0  0
   56.9670   18.1221   47.2262 C   0  0  0  0  0  0  0  0  0  0  0  0
   63.1237   13.9692   44.2441 C   0  0  0  0  0  0  0  0  0  0  0  0
   61.1180   20.1598   44.9006 C   0  0  2  0  0  0  0  0  0  0  0  0
   61.7877   18.6597   43.2344 C   0  0  2  0  0  0  0  0  0  0  0  0
   61.1432   17.2818   43.0360 C   0  0  0  0  0  0  0  0  0  0  0  0
   57.9445   22.3405   47.8493 C   0  0  0  0  0  0  0  0  0  0  0  0
   59.9232   23.4815   47.4507 C   0  0  0  0  0  0  0  0  0  0  0  0
   59.6740   21.5096   46.4556 C   0  0  0  0  0  0  0  0  0  0  0  0
   58.4236   21.3247   47.0197 C   0  0  0  0  0  0  0  0  0  0  0  0
   58.0026   20.0756   46.5287 C   0  0  0  0  0  0  0  0  0  0  0  0
   62.8521   18.6846   44.3345 C   0  0  2  0  0  0  0  0  0  0  0  0
   62.0869   19.1697   45.5502 C   0  0  1  0  0  0  0  0  0  0  0  0
   56.0069   17.8422   48.1476 F   0  0  0  0  0  0  0  0  0  0  0  0
   56.6773   17.3500   46.1403 F   0  0  0  0  0  0  0  0  0  0  0  0
   56.7012   22.3163   48.4803 N   0  0  0  0  0  0  0  0  0  0  0  0
   58.7147   23.4286   48.0511 N   0  0  0  0  0  0  0  0  0  0  0  0
   60.4858   22.5636   46.6457 N   0  0  0  0  0  0  0  0  0  0  0  0
   58.8891   19.4987   45.7120 N   0  0  0  0  0  0  0  0  0  0  0  0
   59.9074   20.4069   45.6702 N   0  0  0  0  0  0  0  0  0  0  0  0
   62.0907   14.8121   43.8042 N   0  0  0  0  0  0  0  0  0  0  0  0
   65.5702   14.3049   44.5967 N   0  0  0  0  0  0  0  0  0  0  0  0
   56.8333   19.4699   46.8234 O   0  0  0  0  0  0  0  0  0  0  0  0
   60.7580   19.6045   43.6165 O   0  0  0  0  0  0  0  0  0  0  0  0
   60.5537   16.8340   44.2487 O   0  0  0  0  0  0  0  0  0  0  0  0
   59.7048   14.5296   44.3678 O   0  0  0  0  0  0  0  0  0  0  0  0
   69.5856   14.4149   39.5671 O   0  0  0  0  0  0  0  0  0  0  0  0
   62.9507   13.0479   45.0299 O   0  0  0  0  0  0  0  0  0  0  0  0
   61.3030   15.3461   46.1234 O   0  0  0  0  0  0  0  0  0  0  0  0
   63.8661   19.6497   44.0102 O   0  0  0  0  0  0  0  0  0  0  0  0
   62.9786   19.7623   46.5017 O   0  0  0  0  0  0  0  0  0  0  0  0
   60.8496   15.3233   44.7521 S   0  0  1  0  0  6  0  0  0  0  0  0
  2  3  4  0
  3  4  4  0
  4  5  4  0
  2  6  1  0
  1  6  1  0
  5  7  4  0
  7  8  4  0
  2  8  4  0
  1 10  1  0
 12 13  1  1
 16 17  4  0
 14 17  4  0
 17 18  4  0
 12 19  1  0
 19 20  1  0
 11 20  1  0
  9 21  1  0
  9 22  1  0
 14 23  1  0
 15 24  4  0
 14 24  4  0
 16 25  4  0
 15 25  4  0
 18 26  4  0
 11 27  1  1
 26 27  4  0
 16 27  4  0
 10 28  1  0
  1 29  1  1
  9 30  1  0
 18 30  1  0
 12 31  1  0
 11 31  1  0
 13 32  1  0
  5 34  1  0
 10 35  2  0
 19 37  1  6
 20 38  1  1
 32 39  1  0
 33 39  2  0
 39 28  1  6
 36 39  2  0
M  END
