7XEK_9YX_A_501
     RDKit          3D

 22 23  0  0  0  0  0  0  0  0999 V2000
   31.0289  -37.6129  -39.5389 O   0  0  0  0  0  0  0  0  0  0  0  0
   31.2110  -36.1257  -39.4080 P   0  0  2  0  0  0  0  0  0  0  0  0
   29.7578  -35.4380  -38.7934 O   0  0  0  0  0  0  0  0  0  0  0  0
   31.4701  -35.3750  -40.9243 O   0  0  0  0  0  0  0  0  0  0  0  0
   32.4377  -35.7663  -38.3440 O   0  0  0  0  0  0  0  0  0  0  0  0
   32.8436  -34.4501  -38.3082 C   0  0  0  0  0  0  0  0  0  0  0  0
   34.0148  -34.2536  -37.4578 C   0  0  0  0  0  0  0  0  0  0  0  0
   34.0431  -33.6019  -36.2574 C   0  0  0  0  0  0  0  0  0  0  0  0
   35.1486  -33.4589  -35.4949 N   0  0  0  0  0  0  0  0  0  0  0  0
   36.3257  -33.9729  -35.8952 C   0  0  0  0  0  0  0  0  0  0  0  0
   37.5462  -33.8237  -35.0574 C   0  0  0  0  0  0  0  0  0  0  0  0
   36.3599  -34.6392  -37.0948 C   0  0  0  0  0  0  0  0  0  0  0  0
   37.5729  -35.1733  -37.5194 O   0  0  0  0  0  0  0  0  0  0  0  0
   35.2223  -34.7988  -37.9007 C   0  0  0  0  0  0  0  0  0  0  0  0
   35.3867  -35.5403  -39.1353 C   0  0  1  0  0  0  0  0  0  0  0  0
   36.5855  -35.1475  -39.8968 N   0  0  0  0  0  0  0  0  0  0  0  0
   35.7716  -37.3013  -38.9558 S   0  0  0  0  0  0  0  0  0  0  0  0
   36.7205  -37.4413  -40.5317 C   0  0  0  0  0  0  0  0  0  0  0  0
   36.5171  -36.0313  -41.0471 C   0  0  2  0  0  0  0  0  0  0  0  0
   37.4716  -35.6226  -42.0764 C   0  0  0  0  0  0  0  0  0  0  0  0
   37.6965  -36.3563  -43.2391 O   0  0  0  0  0  0  0  0  0  0  0  0
   38.1517  -34.5630  -41.9563 O   0  0  0  0  0  0  0  0  0  0  0  0
  1  2  2  0
  2  3  1  1
  2  4  1  0
  2  5  1  0
  5  6  1  0
  6  7  1  0
  7  8  2  0
  8  9  1  0
  9 10  2  0
 10 11  1  0
 10 12  1  0
 12 13  1  0
  7 14  1  0
 12 14  2  0
 15 14  1  1
 15 16  1  0
 15 17  1  0
 17 18  1  0
 18 19  1  0
 16 19  1  0
 19 20  1  6
 20 21  1  0
 20 22  2  0
M  END
$$$$
