7A9H_TPP_AAA_702
     RDKit          3D

 26 27  0  0  0  0  0  0  0  0999 V2000
   -4.1451   -4.7209  -33.6747 N   0  0  0  0  0  0  0  0  0  0  0  0
   -3.8648   -3.6082  -32.9708 C   0  0  0  0  0  0  0  0  0  0  0  0
   -3.0910   -2.5152  -33.6404 C   0  0  0  0  0  0  0  0  0  0  0  0
   -4.1871   -3.4309  -31.6863 N   0  0  0  0  0  0  0  0  0  0  0  0
   -4.8827   -4.4192  -31.0756 C   0  0  0  0  0  0  0  0  0  0  0  0
   -5.2460   -4.2003  -29.7991 N   0  0  0  0  0  0  0  0  0  0  0  0
   -5.1874   -5.6446  -31.7204 C   0  0  0  0  0  0  0  0  0  0  0  0
   -4.8227   -5.7008  -33.0503 C   0  0  0  0  0  0  0  0  0  0  0  0
   -5.9772   -6.7679  -31.0382 C   0  0  0  0  0  0  0  0  0  0  0  0
   -5.3125   -7.3742  -29.8519 N   0  0  0  0  0  0  0  0  0  0  0  0
   -5.0577   -8.6842  -29.7688 C   0  0  0  0  0  0  0  0  0  0  0  0
   -4.3274   -9.1108  -28.2821 S   0  0  0  0  0  0  0  0  0  0  0  0
   -4.1833   -7.4391  -27.8554 C   0  0  0  0  0  0  0  0  0  0  0  0
   -4.7945   -6.6435  -28.7801 C   0  0  0  0  0  0  0  0  0  0  0  0
   -4.8742   -5.1500  -28.7528 C   0  0  0  0  0  0  0  0  0  0  0  0
   -3.4138   -7.0058  -26.6303 C   0  0  0  0  0  0  0  0  0  0  0  0
   -3.9235   -5.7838  -25.8842 C   0  0  0  0  0  0  0  0  0  0  0  0
   -3.1836   -4.6218  -26.3103 O   0  0  0  0  0  0  0  0  0  0  0  0
   -3.1663   -3.2508  -25.4755 P   0  0  2  0  0  0  0  0  0  0  0  0
   -2.5611   -2.2803  -26.4408 O   0  0  0  0  0  0  0  0  0  0  0  0
   -2.4613   -3.4566  -24.1727 O   0  0  0  0  0  0  0  0  0  0  0  0
   -4.7195   -2.9227  -25.2576 O   0  0  0  0  0  0  0  0  0  0  0  0
   -5.5071   -2.0661  -24.0915 P   0  0  1  0  0  0  0  0  0  0  0  0
   -6.8714   -2.6407  -23.9998 O   0  0  0  0  0  0  0  0  0  0  0  0
   -4.6792   -2.2855  -22.8194 O   0  0  0  0  0  0  0  0  0  0  0  0
   -5.4738   -0.6249  -24.5971 O   0  0  0  0  0  0  0  0  0  0  0  0
  1  2  2  0
  2  3  1  0
  2  4  1  0
  4  5  2  0
  5  6  1  0
  5  7  1  0
  1  8  1  0
  7  8  2  0
  7  9  1  0
  9 10  1  0
 10 11  2  0
 11 12  1  0
 12 13  1  0
 10 14  1  0
 13 14  2  0
 14 15  1  0
 13 16  1  0
 16 17  1  0
 17 18  1  0
 18 19  1  0
 19 20  2  0
 19 21  1  1
 19 22  1  0
 22 23  1  0
 23 24  2  0
 23 25  1  1
 23 26  1  0
M  CHG  1  10   1
M  END
