1V0P_PVB_A_1287
     RDKit          3D

 30 32  0  0  0  0  0  0  0  0999 V2000
   25.1315   -1.1236   35.2378 N   0  0  0  0  0  0  0  0  0  0  0  0
   22.3087    1.5526   38.6642 C   0  0  1  0  0  0  0  0  0  0  0  0
   23.1510    0.3973   38.3969 N   0  0  0  0  0  0  0  0  0  0  0  0
   23.7544    0.0339   37.2513 C   0  0  0  0  0  0  0  0  0  0  0  0
   23.7549    0.6129   36.0234 N   0  0  0  0  0  0  0  0  0  0  0  0
   24.4529    0.0143   35.0265 C   0  0  0  0  0  0  0  0  0  0  0  0
   25.1775   -1.7630   36.4461 C   0  0  0  0  0  0  0  0  0  0  0  0
   24.4668   -1.1528   37.4570 C   0  0  0  0  0  0  0  0  0  0  0  0
   24.2573   -1.4560   38.7351 N   0  0  0  0  0  0  0  0  0  0  0  0
   23.4704   -0.5397   39.3192 C   0  0  0  0  0  0  0  0  0  0  0  0
   25.8934   -2.9704   36.5875 N   0  0  0  0  0  0  0  0  0  0  0  0
   26.6930   -3.6037   35.6380 C   0  0  0  0  0  0  0  0  0  0  0  0
   27.7055   -4.4489   36.0991 C   0  0  0  0  0  0  0  0  0  0  0  0
   28.5222   -5.1308   35.2333 C   0  0  0  0  0  0  0  0  0  0  0  0
   28.3731   -5.0060   33.8733 C   0  0  0  0  0  0  0  0  0  0  0  0
   27.3852   -4.1813   33.3845 C   0  0  0  0  0  0  0  0  0  0  0  0
   27.1490   -3.9857   31.6568 Cl  0  0  0  0  0  0  0  0  0  0  0  0
   26.5712   -3.5025   34.2722 C   0  0  0  0  0  0  0  0  0  0  0  0
   29.2235   -5.7135   32.9233 C   0  0  0  0  0  0  0  0  0  0  0  0
   30.3189   -6.4475   33.3861 O   0  0  0  0  0  0  0  0  0  0  0  0
   28.9585   -5.6530   31.7057 O   0  0  0  0  0  0  0  0  0  0  0  0
   24.4997    0.5579   33.7075 N   0  0  0  0  0  0  0  0  0  0  0  0
   25.1770   -0.1738   32.6368 C   0  0  2  0  0  0  0  0  0  0  0  0
   25.5395    0.7984   31.5579 C   0  0  2  0  0  0  0  0  0  0  0  0
   26.2833    0.1559   30.4057 C   0  0  0  0  0  0  0  0  0  0  0  0
   26.4762    1.8261   32.1570 C   0  0  0  0  0  0  0  0  0  0  0  0
   24.1650   -1.2039   32.1559 C   0  0  0  0  0  0  0  0  0  0  0  0
   23.0475   -0.6517   31.5751 O   0  0  0  0  0  0  0  0  0  0  0  0
   23.0448    2.8524   38.3356 C   0  0  0  0  0  0  0  0  0  0  0  0
   21.0616    1.5297   37.7889 C   0  0  0  0  0  0  0  0  0  0  0  0
  2  3  1  0
  3  4  1  0
  4  5  2  0
  1  6  2  0
  5  6  1  0
  1  7  1  0
  4  8  1  0
  7  8  2  0
  8  9  1  0
  3 10  1  0
  9 10  2  0
  7 11  1  0
 11 12  1  0
 12 13  2  0
 13 14  1  0
 14 15  2  0
 15 16  1  0
 16 17  1  0
 12 18  1  0
 16 18  2  0
 15 19  1  0
 19 20  1  0
 19 21  2  0
  6 22  1  0
 22 23  1  0
 23 24  1  0
 24 25  1  6
 24 26  1  0
 23 27  1  6
 27 28  1  0
  2 29  1  6
  2 30  1  0
M  END
$$$$
