1V0P_PVB_A_1287
     RDKit          3D

 30 32  0  0  0  0  0  0  0  0999 V2000
   30.4727   29.0181   -4.9914 N   0  0  0  0  0  0  0  0  0  0  0  0
   26.0824   29.7785   -2.3423 C   0  0  1  0  0  0  0  0  0  0  0  0
   26.9713   30.2190   -3.4060 N   0  0  0  0  0  0  0  0  0  0  0  0
   28.1326   29.6808   -3.8188 C   0  0  0  0  0  0  0  0  0  0  0  0
   28.8182   28.5963   -3.3752 N   0  0  0  0  0  0  0  0  0  0  0  0
   29.9915   28.2819   -3.9783 C   0  0  0  0  0  0  0  0  0  0  0  0
   29.8383   30.1218   -5.4916 C   0  0  0  0  0  0  0  0  0  0  0  0
   28.6467   30.4393   -4.8764 C   0  0  0  0  0  0  0  0  0  0  0  0
   27.7600   31.4145   -5.0556 N   0  0  0  0  0  0  0  0  0  0  0  0
   26.7460   31.3024   -4.1844 C   0  0  0  0  0  0  0  0  0  0  0  0
   30.4172   30.8615   -6.5443 N   0  0  0  0  0  0  0  0  0  0  0  0
   31.5827   30.5703   -7.2507 C   0  0  0  0  0  0  0  0  0  0  0  0
   31.5581   30.7248   -8.6391 C   0  0  0  0  0  0  0  0  0  0  0  0
   32.6677   30.4840   -9.4087 C   0  0  0  0  0  0  0  0  0  0  0  0
   33.8502   30.0796   -8.8382 C   0  0  0  0  0  0  0  0  0  0  0  0
   33.9098   29.9174   -7.4725 C   0  0  0  0  0  0  0  0  0  0  0  0
   35.3946   29.4044   -6.6909 Cl  0  0  0  0  0  0  0  0  0  0  0  0
   32.7815   30.1653   -6.7129 C   0  0  0  0  0  0  0  0  0  0  0  0
   35.0489   29.8128   -9.6246 C   0  0  0  0  0  0  0  0  0  0  0  0
   35.0077   29.9375  -11.0158 O   0  0  0  0  0  0  0  0  0  0  0  0
   36.0986   29.4762   -9.0402 O   0  0  0  0  0  0  0  0  0  0  0  0
   30.7731   27.1602   -3.5678 N   0  0  0  0  0  0  0  0  0  0  0  0
   32.0879   26.9252   -4.1648 C   0  0  2  0  0  0  0  0  0  0  0  0
   32.3445   25.4505   -4.1740 C   0  0  2  0  0  0  0  0  0  0  0  0
   31.2979   24.6709   -4.9425 C   0  0  0  0  0  0  0  0  0  0  0  0
   32.2823   24.9613   -2.7424 C   0  0  0  0  0  0  0  0  0  0  0  0
   33.0705   27.6666   -3.2696 C   0  0  0  0  0  0  0  0  0  0  0  0
   34.3869   27.4818   -3.6217 O   0  0  0  0  0  0  0  0  0  0  0  0
   25.6828   28.3149   -2.5360 C   0  0  0  0  0  0  0  0  0  0  0  0
   26.7744   29.8612   -0.9872 C   0  0  0  0  0  0  0  0  0  0  0  0
  2  3  1  0
  3  4  1  0
  4  5  2  0
  1  6  2  0
  5  6  1  0
  1  7  1  0
  4  8  1  0
  7  8  2  0
  8  9  1  0
  3 10  1  0
  9 10  2  0
  7 11  1  0
 11 12  1  0
 12 13  2  0
 13 14  1  0
 14 15  2  0
 15 16  1  0
 16 17  1  0
 12 18  1  0
 16 18  2  0
 15 19  1  0
 19 20  1  0
 19 21  2  0
  6 22  1  0
 22 23  1  0
 23 24  1  0
 24 25  1  6
 24 26  1  0
 23 27  1  1
 27 28  1  0
  2 29  1  6
  2 30  1  0
M  END
$$$$
