1V0P_PVB_A_1287
     RDKit          3D

 30 32  0  0  0  0  0  0  0  0999 V2000
   24.4488   -0.5865   34.6082 N   0  0  0  0  0  0  0  0  0  0  0  0
   22.7699    0.3558   39.4211 C   0  0  1  0  0  0  0  0  0  0  0  0
   22.8066    0.7677   38.0266 N   0  0  0  0  0  0  0  0  0  0  0  0
   23.4156    0.1769   36.9831 C   0  0  0  0  0  0  0  0  0  0  0  0
   24.1706   -0.9492   36.9144 N   0  0  0  0  0  0  0  0  0  0  0  0
   24.6799   -1.3139   35.7115 C   0  0  0  0  0  0  0  0  0  0  0  0
   23.6985    0.5572   34.6004 C   0  0  0  0  0  0  0  0  0  0  0  0
   23.1829    0.9257   35.8241 C   0  0  0  0  0  0  0  0  0  0  0  0
   22.4341    1.9486   36.2268 N   0  0  0  0  0  0  0  0  0  0  0  0
   22.1956    1.8745   37.5450 C   0  0  0  0  0  0  0  0  0  0  0  0
   23.5180    1.2836   33.4045 N   0  0  0  0  0  0  0  0  0  0  0  0
   24.0790    1.0233   32.1557 C   0  0  0  0  0  0  0  0  0  0  0  0
   23.2213    0.9765   31.0538 C   0  0  0  0  0  0  0  0  0  0  0  0
   23.6924    0.7508   29.7854 C   0  0  0  0  0  0  0  0  0  0  0  0
   25.0329    0.5611   29.5520 C   0  0  0  0  0  0  0  0  0  0  0  0
   25.9064    0.6008   30.6152 C   0  0  0  0  0  0  0  0  0  0  0  0
   27.6286    0.3666   30.3745 Cl  0  0  0  0  0  0  0  0  0  0  0  0
   25.4133    0.8301   31.8863 C   0  0  0  0  0  0  0  0  0  0  0  0
   25.5693    0.3170   28.2182 C   0  0  0  0  0  0  0  0  0  0  0  0
   24.6963    0.1160   27.1456 O   0  0  0  0  0  0  0  0  0  0  0  0
   26.8058    0.2917   28.0539 O   0  0  0  0  0  0  0  0  0  0  0  0
   25.4862   -2.4816   35.5572 N   0  0  0  0  0  0  0  0  0  0  0  0
   26.0722   -2.8009   34.2553 C   0  0  2  0  0  0  0  0  0  0  0  0
   26.5043   -4.2339   34.2716 C   0  0  2  0  0  0  0  0  0  0  0  0
   27.7536   -4.4676   35.0952 C   0  0  0  0  0  0  0  0  0  0  0  0
   26.8436   -4.6309   32.8505 C   0  0  0  0  0  0  0  0  0  0  0  0
   27.2541   -1.8535   34.1069 C   0  0  0  0  0  0  0  0  0  0  0  0
   27.1717   -1.0352   33.0049 O   0  0  0  0  0  0  0  0  0  0  0  0
   23.8879    1.0291   40.2187 C   0  0  0  0  0  0  0  0  0  0  0  0
   21.4596    0.7746   40.0767 C   0  0  0  0  0  0  0  0  0  0  0  0
  2  3  1  0
  3  4  1  0
  4  5  2  0
  1  6  2  0
  5  6  1  0
  1  7  1  0
  4  8  1  0
  7  8  2  0
  8  9  1  0
  3 10  1  0
  9 10  2  0
  7 11  1  0
 11 12  1  0
 12 13  2  0
 13 14  1  0
 14 15  2  0
 15 16  1  0
 16 17  1  0
 12 18  1  0
 16 18  2  0
 15 19  1  0
 19 20  1  0
 19 21  2  0
  6 22  1  0
 22 23  1  0
 23 24  1  0
 24 25  1  1
 24 26  1  0
 23 27  1  1
 27 28  1  0
  2 29  1  1
  2 30  1  0
M  END
$$$$
