6XBO_5MC_A_401
     RDKit          3D

 38 39  0  0  0  0  0  0  0  0999 V2000
    5.0359   -1.7460    0.8522 P   0  0  1  0  0  5  0  0  0  0  0  0
    4.7495   -3.0749    1.5159 O   0  0  0  0  0  0  0  0  0  0  0  0
    5.5631   -0.6439    2.0227 O   0  0  0  0  0  0  0  0  0  0  0  0
    6.2532   -1.9414   -0.3085 O   0  0  0  0  0  0  0  0  0  0  0  0
    3.6177   -1.1413    0.1251 O   0  0  0  0  0  0  0  0  0  0  0  0
    3.0649   -0.1585    0.9696 C   0  0  0  0  0  0  0  0  0  0  0  0
    3.7523   -0.2011    2.3396 C   0  0  2  0  0  0  0  0  0  0  0  0
    5.1045    0.1688    2.2137 O   0  0  0  0  0  0  0  0  0  0  0  0
    3.7031   -1.5821    2.9814 C   0  0  2  0  0  0  0  0  0  0  0  0
    2.5196   -1.7685    3.7153 O   0  0  0  0  0  0  0  0  0  0  0  0
    4.9246   -1.5724    3.8736 C   0  0  2  0  0  0  0  0  0  0  0  0
    4.5957   -1.1997    5.1896 O   0  0  0  0  0  0  0  0  0  0  0  0
    5.8168   -0.4945    3.2403 C   0  0  1  0  0  0  0  0  0  0  0  0
    7.0539   -1.0951    2.6963 N   0  0  0  0  0  4  0  0  0  0  0  0
    8.1968   -0.3506    2.5518 C   0  0  0  0  0  0  0  0  0  0  0  0
    8.2165    0.8717    2.8602 O   0  0  0  0  0  0  0  0  0  0  0  0
    9.3312   -0.9238    2.0763 N   0  0  0  0  0  0  0  0  0  0  0  0
    9.3876   -2.2376    1.7431 C   0  0  0  0  0  0  0  0  0  0  0  0
   10.6187   -2.7724    1.2452 N   0  0  0  0  0  0  0  0  0  0  0  0
    8.2434   -3.0375    1.9040 C   0  0  0  0  0  0  0  0  0  0  0  0
    7.0820   -2.4304    2.3974 C   0  0  0  0  0  0  0  0  0  0  0  0
    8.2442   -4.5045    1.5706 C   0  0  0  0  0  0  0  0  0  0  0  0
    4.7666   -0.4742    2.5865 H   0  0  0  0  0  0  0  0  0  0  0  0
    7.0503   -2.2244    0.2066 H   0  0  0  0  0  0  0  0  0  0  0  0
    3.2268    0.8560    0.5406 H   0  0  0  0  0  0  0  0  0  0  0  0
    1.9726   -0.3199    1.1162 H   0  0  0  0  0  0  0  0  0  0  0  0
    3.2484    0.5360    3.0067 H   0  0  0  0  0  0  0  0  0  0  0  0
    3.8241   -2.3884    2.2194 H   0  0  0  0  0  0  0  0  0  0  0  0
    1.8128   -1.9997    3.0581 H   0  0  0  0  0  0  0  0  0  0  0  0
    5.4233   -2.5716    3.8671 H   0  0  0  0  0  0  0  0  0  0  0  0
    4.3096   -2.0266    5.6587 H   0  0  0  0  0  0  0  0  0  0  0  0
    6.0694    0.2789    4.0002 H   0  0  0  0  0  0  0  0  0  0  0  0
   10.7233   -3.7746    0.9751 H   0  0  0  0  0  0  0  0  0  0  0  0
   11.4505   -2.1497    1.1418 H   0  0  0  0  0  0  0  0  0  0  0  0
    6.1978   -3.0362    2.5465 H   0  0  0  0  0  0  0  0  0  0  0  0
    8.4879   -4.6454    0.4966 H   0  0  0  0  0  0  0  0  0  0  0  0
    7.2531   -4.9688    1.7616 H   0  0  0  0  0  0  0  0  0  0  0  0
    8.9969   -5.0309    2.1943 H   0  0  0  0  0  0  0  0  0  0  0  0
  1  2  2  0
  1  3  1  6
  1  4  1  0
  1  5  1  0
  5  6  1  0
  7  6  1  0
  7  8  1  0
  7  9  1  0
  9 10  1  0
  9 11  1  0
 11 12  1  0
  8 13  1  0
 11 13  1  0
 13 14  1  0
 14 15  4  0
 15 16  2  0
 15 17  4  0
 17 18  4  0
 18 19  1  0
 18 20  4  0
 14 21  4  0
 20 21  4  0
 20 22  1  0
  3 23  1  0
  4 24  1  0
  6 25  1  0
  6 26  1  0
  7 27  1  6
  9 28  1  1
 10 29  1  0
 11 30  1  6
 12 31  1  0
 13 32  1  6
 19 33  1  0
 19 34  1  0
 21 35  1  0
 22 36  1  0
 22 37  1  0
 22 38  1  0
M  CHG  1  14   1
M  END
