7SED_8VD_A_401
     RDKit          3D

 30 31  0  0  0  0  0  0  0  0999 V2000
   -1.5440   -0.2927   -1.3669 C   0  0  0  0  0  0  0  0  0  0  0  0
    1.7817   -0.1891    2.6862 N   0  0  0  0  0  0  0  0  0  0  0  0
    0.5850   -1.3986    0.8154 C   0  0  0  0  0  0  0  0  0  0  0  0
   -0.6716    0.1453    2.3618 C   0  0  0  0  0  0  0  0  0  0  0  0
   -1.5137   -0.3290    0.0722 N   0  0  0  0  0  0  0  0  0  0  0  0
    0.6563    0.3991   -4.3857 C   0  0  0  0  0  0  0  0  0  0  0  0
   -0.5283    0.0531   -3.5315 C   0  0  0  0  0  0  0  0  0  0  0  0
   -0.4146    0.0380   -2.1358 C   0  0  0  0  0  0  0  0  0  0  0  0
   -0.3044   -0.1487    0.8884 C   0  0  0  0  0  0  0  0  0  0  0  0
    0.4671   -0.2158    3.3401 C   0  0  0  0  0  0  0  0  0  0  0  0
    1.8887   -1.2066    1.6229 C   0  0  0  0  0  0  0  0  0  0  0  0
   -2.8073   -0.5562   -3.3567 C   0  0  0  0  0  0  0  0  0  0  0  0
    1.0822    1.6815   -4.0915 F   0  0  0  0  0  0  0  0  0  0  0  0
    1.6852   -0.4908   -4.1366 F   0  0  0  0  0  0  0  0  0  0  0  0
    0.3242    0.3345   -5.7278 F   0  0  0  0  0  0  0  0  0  0  0  0
   -2.7124   -0.5777   -2.0027 N   0  0  0  0  0  0  0  0  0  0  0  0
   -1.7226   -0.2438   -4.1098 N   0  0  0  0  0  0  0  0  0  0  0  0
    1.9357    0.7612    2.2734 H   0  0  0  0  0  0  0  0  0  0  0  0
    0.0224   -2.2661    1.2267 H   0  0  0  0  0  0  0  0  0  0  0  0
    0.8394   -1.6416   -0.2378 H   0  0  0  0  0  0  0  0  0  0  0  0
   -0.9167    1.2255    2.4596 H   0  0  0  0  0  0  0  0  0  0  0  0
   -1.5746   -0.4285    2.6646 H   0  0  0  0  0  0  0  0  0  0  0  0
   -2.4274   -0.4922    0.5534 H   0  0  0  0  0  0  0  0  0  0  0  0
    0.5343    0.2808   -1.6787 H   0  0  0  0  0  0  0  0  0  0  0  0
    0.2621    0.7295    0.5084 H   0  0  0  0  0  0  0  0  0  0  0  0
    0.2902   -1.2286    3.7666 H   0  0  0  0  0  0  0  0  0  0  0  0
    0.4660    0.4996    4.1905 H   0  0  0  0  0  0  0  0  0  0  0  0
    2.7065   -0.9145    0.9275 H   0  0  0  0  0  0  0  0  0  0  0  0
    2.1837   -2.1767    2.0776 H   0  0  0  0  0  0  0  0  0  0  0  0
   -3.7485   -0.7882   -3.8358 H   0  0  0  0  0  0  0  0  0  0  0  0
  1  5  1  0
  6  7  1  0
  7  8  2  0
  1  8  1  0
  5  9  1  0
  3  9  1  0
  4  9  1  0
  4 10  1  0
  2 10  1  0
  3 11  1  0
  2 11  1  0
  6 13  1  0
  6 14  1  0
  6 15  1  0
 12 16  1  0
  1 16  2  0
 12 17  2  0
  7 17  1  0
  2 18  1  0
  3 19  1  0
  3 20  1  0
  4 21  1  0
  4 22  1  0
  5 23  1  0
  8 24  1  0
  9 25  1  0
 10 26  1  0
 10 27  1  0
 11 28  1  0
 11 29  1  0
 12 30  1  0
M  END
