7NA4_1I9_A_201
     RDKit          3D

 38 43  0  0  0  0  0  0  0  0999 V2000
   -3.7010   16.8200   -0.4540 C   0  0  0  0  0  0  0  0  0  0  0  0
   -4.3480   15.4400   -0.6470 C   0  0  1  0  0  0  0  0  0  0  0  0
   -4.4080   14.7480    0.7150 C   0  0  0  0  0  0  0  0  0  0  0  0
   -4.8950   13.3310    0.5310 C   0  0  0  0  0  0  0  0  0  0  0  0
   -6.3720   13.2890    0.1080 C   0  0  1  0  0  0  0  0  0  0  0  0
   -6.4770   14.1010   -1.2050 C   0  0  0  0  0  0  0  0  0  0  0  0
   -5.7850   15.4810   -1.1280 C   0  0  0  0  0  0  0  0  0  0  0  0
   -6.8200   11.8270   -0.0480 C   0  0  1  0  0  0  0  0  0  0  0  0
   -8.2560   11.2490   -2.0820 C   0  0  0  0  0  0  0  0  0  0  0  0
   -9.1930   10.4560   -4.5440 C   0  0  0  0  0  0  0  0  0  0  0  0
  -10.1150   10.9480   -3.6370 C   0  0  0  0  0  0  0  0  0  0  0  0
   -9.6400   11.3700   -2.3760 C   0  0  0  0  0  0  0  0  0  0  0  0
   -9.3500   12.0990   -0.3630 C   0  0  0  0  0  0  0  0  0  0  0  0
  -10.4930   12.0240    3.1620 C   0  0  0  0  0  0  0  0  0  0  0  0
  -10.6870   10.8190    4.0870 C   0  0  0  0  0  0  0  0  0  0  0  0
   -9.7970   15.2200    0.3780 C   0  0  0  0  0  0  0  0  0  0  0  0
  -10.7010    9.7030   -7.7160 C   0  0  0  0  0  0  0  0  0  0  0  0
   -5.9550   10.5540   -2.9690 C   0  0  0  0  0  0  0  0  0  0  0  0
   -5.1040   11.3620   -3.7180 C   0  0  0  0  0  0  0  0  0  0  0  0
   -3.7420   11.1310   -3.5940 C   0  0  0  0  0  0  0  0  0  0  0  0
   -3.2560   10.1690   -2.7100 C   0  0  0  0  0  0  0  0  0  0  0  0
   -5.4060    9.5550   -2.1320 C   0  0  0  0  0  0  0  0  0  0  0  0
   -6.9080   11.0050    1.2830 C   0  0  0  0  0  0  0  0  0  0  0  0
   -8.1030   11.7200   -0.7850 N   0  0  0  0  0  0  0  0  0  0  0  0
   -7.4050   10.7340   -3.0850 C   0  0  0  0  0  0  0  0  0  0  0  0
   -7.9040   10.4000   -4.2550 N   0  0  0  0  0  0  0  0  0  0  0  0
  -10.2530   11.8860   -1.2880 N   0  0  0  0  0  0  0  0  0  0  0  0
   -9.6580   12.6870    0.9920 C   0  0  2  0  0  0  0  0  0  0  0  0
  -10.2750   11.6480    1.7730 O   0  0  0  0  0  0  0  0  0  0  0  0
  -10.5240   13.9210    0.7540 C   0  0  0  0  0  0  0  0  0  0  0  0
  -10.4470   15.0880    1.7570 C   0  0  0  0  0  0  0  0  0  0  0  0
   -9.5900   10.0630   -5.9030 C   0  0  0  0  0  0  0  0  0  0  0  0
  -10.8680   10.0560   -6.4120 N   0  0  0  0  0  0  0  0  0  0  0  0
  -11.5870    9.5930   -8.5470 O   0  0  0  0  0  0  0  0  0  0  0  0
   -9.3780    9.5180   -7.9120 O   0  0  0  0  0  0  0  0  0  0  0  0
   -8.7800    9.7590   -6.8750 N   0  0  0  0  0  0  0  0  0  0  0  0
   -2.6430   12.0900   -4.4700 Cl  0  0  0  0  0  0  0  0  0  0  0  0
   -4.0890    9.4030   -2.0370 N   0  0  0  0  0  0  0  0  0  0  0  0
  2  1  1  1
  2  3  1  0
  3  4  1  0
  5  4  1  6
  5  6  1  0
  6  7  1  0
  2  7  1  0
  5  8  1  0
 10 11  2  0
 11 12  1  0
  9 12  2  0
 14 15  1  0
 18 19  2  0
 19 20  1  0
 20 21  2  0
 18 22  1  0
  8 23  1  1
  9 24  1  0
 13 24  1  0
  8 24  1  0
 18 25  1  0
  9 25  1  0
 10 26  1  0
 25 26  2  0
 12 27  1  0
 13 27  2  0
 13 28  1  0
 28 29  1  1
 14 29  1  0
 16 30  1  0
 28 30  1  0
 16 31  1  0
 30 31  1  0
 10 32  1  0
 17 33  1  0
 32 33  1  0
 17 34  2  0
 17 35  1  0
 35 36  1  0
 32 36  2  0
 20 37  1  0
 21 38  1  0
 22 38  2  0
M  END
$$$$
