1P2Y_NCT_A_440
     RDKit          3D

 26 27  0  0  0  0  0  0  0  0999 V2000
    1.6845    1.7848   -2.2423 N   0  0  0  0  0  0  0  0  0  0  0  0
    0.8674    1.5384   -1.1841 C   0  0  0  0  0  0  0  0  0  0  0  0
    0.8659    0.2784   -0.5589 C   0  0  0  0  0  0  0  0  0  0  0  0
    1.7694   -0.6940   -1.0312 C   0  0  0  0  0  0  0  0  0  0  0  0
    2.5962   -0.4142   -2.1207 C   0  0  0  0  0  0  0  0  0  0  0  0
    2.5353    0.8418   -2.7229 C   0  0  0  0  0  0  0  0  0  0  0  0
   -1.4567    0.3980    0.4179 N   0  0  0  0  0  0  0  0  0  0  0  0
   -0.0380    0.0595    0.6511 C   0  0  1  0  0  0  0  0  0  0  0  0
   -0.0278   -1.3300    1.2833 C   0  0  0  0  0  0  0  0  0  0  0  0
   -1.3168   -1.3693    2.0850 C   0  0  0  0  0  0  0  0  0  0  0  0
   -2.1536   -0.1943    1.5733 C   0  0  0  0  0  0  0  0  0  0  0  0
   -1.9898   -0.1779   -0.8363 C   0  0  0  0  0  0  0  0  0  0  0  0
    0.2116    2.3240   -0.8311 H   0  0  0  0  0  0  0  0  0  0  0  0
    1.8555   -1.6641   -0.5639 H   0  0  0  0  0  0  0  0  0  0  0  0
    3.2852   -1.1628   -2.4899 H   0  0  0  0  0  0  0  0  0  0  0  0
    3.1723    1.0712   -3.5666 H   0  0  0  0  0  0  0  0  0  0  0  0
    0.3435    0.7611    1.4294 H   0  0  0  0  0  0  0  0  0  0  0  0
   -0.0695   -2.1247    0.5075 H   0  0  0  0  0  0  0  0  0  0  0  0
    0.8640   -1.4795    1.9305 H   0  0  0  0  0  0  0  0  0  0  0  0
   -1.1040   -1.2479    3.1698 H   0  0  0  0  0  0  0  0  0  0  0  0
   -1.8485   -2.3327    1.9237 H   0  0  0  0  0  0  0  0  0  0  0  0
   -3.1920   -0.5203    1.3357 H   0  0  0  0  0  0  0  0  0  0  0  0
   -2.2311    0.5769    2.3706 H   0  0  0  0  0  0  0  0  0  0  0  0
   -3.0774    0.0345   -0.9207 H   0  0  0  0  0  0  0  0  0  0  0  0
   -1.8350   -1.2779   -0.8855 H   0  0  0  0  0  0  0  0  0  0  0  0
   -1.5157    0.2970   -1.7191 H   0  0  0  0  0  0  0  0  0  0  0  0
  1  2  2  0
  2  3  1  0
  3  4  2  0
  4  5  1  0
  1  6  1  0
  5  6  2  0
  8  3  1  0
  7  8  1  0
  8  9  1  0
  9 10  1  0
  7 11  1  0
 10 11  1  0
  7 12  1  0
  2 13  1  0
  4 14  1  0
  5 15  1  0
  6 16  1  0
  8 17  1  1
  9 18  1  0
  9 19  1  0
 10 20  1  0
 10 21  1  0
 11 22  1  0
 11 23  1  0
 12 24  1  0
 12 25  1  0
 12 26  1  0
M  END
