1V4S_MRK_A_501
     RDKit          3D

 35 37  0  0  0  0  0  0  0  0999 V2000
   37.0171   17.9741   59.3530 S   0  0  0  0  0  0  0  0  0  0  0  0
   35.9418   18.7649   60.4488 C   0  0  0  0  0  0  0  0  0  0  0  0
   36.4315   18.6758   61.7196 C   0  0  0  0  0  0  0  0  0  0  0  0
   37.6224   18.0049   61.8467 N   0  0  0  0  0  0  0  0  0  0  0  0
   38.0567   17.5706   60.6557 C   0  0  0  0  0  0  0  0  0  0  0  0
   39.2329   16.8842   60.5491 N   0  0  0  0  0  0  0  0  0  0  0  0
   39.5051   15.5195   60.9158 C   0  0  0  0  0  0  0  0  0  0  0  0
   39.3749   14.5961   60.1004 O   0  0  0  0  0  0  0  0  0  0  0  0
   39.4593   15.7401   63.6024 C   0  0  0  0  0  0  0  0  0  0  0  0
   39.9831   15.2158   62.3524 C   0  0  0  0  0  0  0  0  0  0  0  0
   41.0812   14.2852   62.4317 C   0  0  0  0  0  0  0  0  0  0  0  0
   41.6298   13.8994   63.6715 C   0  0  0  0  0  0  0  0  0  0  0  0
   41.1076   14.4249   64.8868 C   0  0  0  0  0  0  0  0  0  0  0  0
   41.6176   14.0714   66.1045 F   0  0  0  0  0  0  0  0  0  0  0  0
   40.0267   15.3406   64.8397 C   0  0  0  0  0  0  0  0  0  0  0  0
   42.9661   12.7469   63.6338 S   0  0  0  0  0  0  0  0  0  0  0  0
   44.3940   11.9964   61.4555 N   0  0  0  0  0  4  0  0  0  0  0  0
   43.1494   11.9625   62.0717 C   0  0  0  0  0  0  0  0  0  0  0  0
   42.0989   11.3217   61.4549 N   0  0  0  0  0  0  0  0  0  0  0  0
   42.7485   10.8926   60.3060 C   0  0  0  0  0  0  0  0  0  0  0  0
   44.0905   11.2854   60.3038 C   0  0  0  0  0  0  0  0  0  0  0  0
   45.6675   12.6093   61.8966 C   0  0  0  0  0  0  0  0  0  0  0  0
   38.4407   16.6020   63.6664 N   0  0  0  0  0  0  0  0  0  0  0  0
   35.0619   19.2340   60.1828 H   0  0  0  0  0  0  0  0  0  0  0  0
   35.9399   19.0848   62.5296 H   0  0  0  0  0  0  0  0  0  0  0  0
   39.9912   17.3873   60.1735 H   0  0  0  0  0  0  0  0  0  0  0  0
   41.4742   13.8928   61.5618 H   0  0  0  0  0  0  0  0  0  0  0  0
   39.6463   15.7228   65.7197 H   0  0  0  0  0  0  0  0  0  0  0  0
   42.2987   10.3528   59.5501 H   0  0  0  0  0  0  0  0  0  0  0  0
   44.7626   11.0752   59.5493 H   0  0  0  0  0  0  0  0  0  0  0  0
   45.5262   13.0806   62.8468 H   0  0  0  0  0  0  0  0  0  0  0  0
   45.9793   13.3393   61.1792 H   0  0  0  0  0  0  0  0  0  0  0  0
   46.4173   11.8508   61.9826 H   0  0  0  0  0  0  0  0  0  0  0  0
   38.0076   16.9144   62.8393 H   0  0  0  0  0  0  0  0  0  0  0  0
   38.1230   16.9247   64.5406 H   0  0  0  0  0  0  0  0  0  0  0  0
  1  2  4  0
  2  3  4  0
  3  4  4  0
  1  5  4  0
  4  5  4  0
  5  6  1  0
  6  7  1  0
  7  8  2  0
  7 10  1  0
  9 10  4  0
 10 11  4  0
 11 12  4  0
 12 13  4  0
 13 14  1  0
  9 15  4  0
 13 15  4  0
 12 16  1  0
 16 18  1  0
 17 18  4  0
 18 19  4  0
 19 20  4  0
 17 21  4  0
 20 21  4  0
 17 22  1  0
  9 23  1  0
  2 24  1  0
  3 25  1  0
  6 26  1  0
 11 27  1  0
 15 28  1  0
 20 29  1  0
 21 30  1  0
 22 31  1  0
 22 32  1  0
 22 33  1  0
 23 34  1  0
 23 35  1  0
M  CHG  1  17   1
M  END
