7BA0_T5H_A_201
     RDKit          3D

110115  0  0  0  0  0  0  0  0999 V2000
    4.2046    2.0990    2.1639 C   0  0  0  0  0  0  0  0  0  0  0  0
    3.2693    3.3081    2.2075 C   0  0  0  0  0  0  0  0  0  0  0  0
    2.2561    3.1521    3.3408 C   0  0  0  0  0  0  0  0  0  0  0  0
    1.4293    1.8798    3.1606 C   0  0  0  0  0  0  0  0  0  0  0  0
    2.3144    0.6320    3.0216 C   0  0  0  0  0  0  0  0  0  0  0  0
    3.4410    0.7694    1.9631 C   0  0  0  0  0  0  0  0  0  0  0  0
    3.0610    0.4954    0.4554 C   0  0  2  0  0  0  0  0  0  0  0  0
    1.6190    0.7384    0.0486 C   0  0  0  0  0  0  0  0  0  0  0  0
    0.6850    0.0866    0.5819 O   0  0  0  0  0  0  0  0  0  0  0  0
    1.3150    1.6240   -1.0440 N   0  0  0  0  0  0  0  0  0  0  0  0
    1.8769    1.3785   -2.3764 C   0  0  0  0  0  0  0  0  0  0  0  0
    2.8312    2.5183   -2.7750 C   0  0  0  0  0  0  0  0  0  0  0  0
    2.5441    3.8320   -2.0223 C   0  0  0  0  0  0  0  0  0  0  0  0
    1.0482    4.0005   -1.7242 C   0  0  0  0  0  0  0  0  0  0  0  0
    0.5122    2.8440   -0.8334 C   0  0  1  0  0  0  0  0  0  0  0  0
   -0.9447    2.5776   -1.1205 C   0  0  0  0  0  0  0  0  0  0  0  0
   -1.7463    3.5424   -1.2645 O   0  0  0  0  0  0  0  0  0  0  0  0
   -1.4006    1.2601   -1.2088 O   0  0  0  0  0  0  0  0  0  0  0  0
   -2.6843    0.8781   -1.7113 C   0  0  2  0  0  0  0  0  0  0  0  0
   -3.6830    0.6549   -0.5601 C   0  0  0  0  0  0  0  0  0  0  0  0
   -4.0759    1.9683    0.1272 C   0  0  0  0  0  0  0  0  0  0  0  0
   -5.1267    1.7315    1.1811 C   0  0  0  0  0  0  0  0  0  0  0  0
   -4.7579    1.5502    2.5219 C   0  0  0  0  0  0  0  0  0  0  0  0
   -6.4805    1.6796    0.8259 C   0  0  0  0  0  0  0  0  0  0  0  0
   -7.4580    1.4783    1.8005 C   0  0  0  0  0  0  0  0  0  0  0  0
   -7.0948    1.3184    3.1523 C   0  0  0  0  0  0  0  0  0  0  0  0
   -8.0514    1.1263    4.1622 O   0  0  0  0  0  0  0  0  0  0  0  0
   -9.4607    1.1340    3.9540 C   0  0  0  0  0  0  0  0  0  0  0  0
   -5.7380    1.3567    3.5153 C   0  0  0  0  0  0  0  0  0  0  0  0
   -5.4029    1.2035    4.8706 O   0  0  0  0  0  0  0  0  0  0  0  0
   -4.0730    1.2446    5.3799 C   0  0  0  0  0  0  0  0  0  0  0  0
   -2.5117   -0.3925   -2.5084 C   0  0  0  0  0  0  0  0  0  0  0  0
   -1.7653   -1.4583   -1.9800 C   0  0  0  0  0  0  0  0  0  0  0  0
   -3.0471   -0.5108   -3.8017 C   0  0  0  0  0  0  0  0  0  0  0  0
   -2.7935   -1.6558   -4.5674 C   0  0  0  0  0  0  0  0  0  0  0  0
   -2.0043   -2.6859   -4.0546 C   0  0  0  0  0  0  0  0  0  0  0  0
   -1.4882   -2.5871   -2.7528 C   0  0  0  0  0  0  0  0  0  0  0  0
   -0.6872   -3.5827   -2.1938 O   0  0  0  0  0  0  0  0  0  0  0  0
    0.2360   -4.3802   -2.9363 C   0  0  0  0  0  0  0  0  0  0  0  0
    1.3596   -4.7958   -1.9803 C   0  0  1  0  0  0  0  0  0  0  0  0
    0.8464   -5.6779   -1.0184 O   0  0  0  0  0  0  0  0  0  0  0  0
    2.5584   -5.4617   -2.6904 C   0  0  1  0  0  0  0  0  0  0  0  0
    3.0540   -4.6289   -3.7102 O   0  0  0  0  0  0  0  0  0  0  0  0
    3.7073   -5.7861   -1.7040 C   0  0  0  0  0  0  0  0  0  0  0  0
    4.6032   -4.6833   -1.5088 O   0  0  0  0  0  0  0  0  0  0  0  0
    4.2770   -3.4411   -0.9367 C   0  0  0  0  0  0  0  0  0  0  0  0
    3.5055   -3.3247    0.2398 C   0  0  0  0  0  0  0  0  0  0  0  0
    3.1571   -4.4846    0.9505 O   0  0  0  0  0  0  0  0  0  0  0  0
    2.3137   -4.5079    2.0959 C   0  0  0  0  0  0  0  0  0  0  0  0
    3.0965   -2.0475    0.6733 C   0  0  0  0  0  0  0  0  0  0  0  0
    3.5107   -0.8870   -0.0014 C   0  0  0  0  0  0  0  0  0  0  0  0
    4.3703   -1.0173   -1.1037 C   0  0  0  0  0  0  0  0  0  0  0  0
    4.7469   -2.2864   -1.5784 C   0  0  0  0  0  0  0  0  0  0  0  0
    5.5783   -2.4395   -2.6989 O   0  0  0  0  0  0  0  0  0  0  0  0
    6.1966   -1.3643   -3.3981 C   0  0  0  0  0  0  0  0  0  0  0  0
    4.9646    2.2433    1.3637 H   0  0  0  0  0  0  0  0  0  0  0  0
    4.7772    2.0537    3.1200 H   0  0  0  0  0  0  0  0  0  0  0  0
    2.7448    3.4184    1.2358 H   0  0  0  0  0  0  0  0  0  0  0  0
    3.8712    4.2300    2.3744 H   0  0  0  0  0  0  0  0  0  0  0  0
    1.5851    4.0367    3.3614 H   0  0  0  0  0  0  0  0  0  0  0  0
    2.7953    3.1150    4.3137 H   0  0  0  0  0  0  0  0  0  0  0  0
    0.7704    1.9938    2.2814 H   0  0  0  0  0  0  0  0  0  0  0  0
    0.7686    1.7605    4.0455 H   0  0  0  0  0  0  0  0  0  0  0  0
    2.7912    0.4419    4.0102 H   0  0  0  0  0  0  0  0  0  0  0  0
    1.6791   -0.2531    2.8242 H   0  0  0  0  0  0  0  0  0  0  0  0
    4.1914   -0.0052    2.2400 H   0  0  0  0  0  0  0  0  0  0  0  0
    3.6427    1.2288   -0.1412 H   0  0  0  0  0  0  0  0  0  0  0  0
    2.4027    0.4027   -2.4179 H   0  0  0  0  0  0  0  0  0  0  0  0
    1.0429    1.3255   -3.1088 H   0  0  0  0  0  0  0  0  0  0  0  0
    3.8793    2.2141   -2.5757 H   0  0  0  0  0  0  0  0  0  0  0  0
    2.7423    2.6958   -3.8673 H   0  0  0  0  0  0  0  0  0  0  0  0
    2.9082    4.6939   -2.6227 H   0  0  0  0  0  0  0  0  0  0  0  0
    3.1032    3.8342   -1.0640 H   0  0  0  0  0  0  0  0  0  0  0  0
    0.5000    4.0401   -2.6938 H   0  0  0  0  0  0  0  0  0  0  0  0
    0.8872    4.9746   -1.2117 H   0  0  0  0  0  0  0  0  0  0  0  0
    0.5945    3.1616    0.2261 H   0  0  0  0  0  0  0  0  0  0  0  0
   -3.0780    1.6715   -2.3873 H   0  0  0  0  0  0  0  0  0  0  0  0
   -3.2420   -0.0344    0.1933 H   0  0  0  0  0  0  0  0  0  0  0  0
   -4.6035    0.1804   -0.9716 H   0  0  0  0  0  0  0  0  0  0  0  0
   -3.1814    2.4239    0.6017 H   0  0  0  0  0  0  0  0  0  0  0  0
   -4.4627    2.6889   -0.6280 H   0  0  0  0  0  0  0  0  0  0  0  0
   -3.7097    1.5745    2.7825 H   0  0  0  0  0  0  0  0  0  0  0  0
   -6.7764    1.8000   -0.2098 H   0  0  0  0  0  0  0  0  0  0  0  0
   -8.4952    1.4551    1.4946 H   0  0  0  0  0  0  0  0  0  0  0  0
   -9.7551    0.3068    3.2782 H   0  0  0  0  0  0  0  0  0  0  0  0
   -9.7782    2.1080    3.5268 H   0  0  0  0  0  0  0  0  0  0  0  0
   -9.9741    0.9966    4.9268 H   0  0  0  0  0  0  0  0  0  0  0  0
   -3.6094    2.2308    5.1672 H   0  0  0  0  0  0  0  0  0  0  0  0
   -4.0990    1.0985    6.4789 H   0  0  0  0  0  0  0  0  0  0  0  0
   -3.4690    0.4293    4.9297 H   0  0  0  0  0  0  0  0  0  0  0  0
   -1.3503   -1.3914   -0.9813 H   0  0  0  0  0  0  0  0  0  0  0  0
   -3.6453    0.2850   -4.2271 H   0  0  0  0  0  0  0  0  0  0  0  0
   -3.1979   -1.7375   -5.5671 H   0  0  0  0  0  0  0  0  0  0  0  0
   -1.8003   -3.5584   -4.6632 H   0  0  0  0  0  0  0  0  0  0  0  0
    0.6539   -3.7786   -3.7703 H   0  0  0  0  0  0  0  0  0  0  0  0
   -0.2816   -5.2730   -3.3497 H   0  0  0  0  0  0  0  0  0  0  0  0
    1.7137   -3.8666   -1.4927 H   0  0  0  0  0  0  0  0  0  0  0  0
    0.4235   -5.1339   -0.3068 H   0  0  0  0  0  0  0  0  0  0  0  0
    2.2016   -6.4349   -3.1132 H   0  0  0  0  0  0  0  0  0  0  0  0
    2.6433   -4.9317   -4.5602 H   0  0  0  0  0  0  0  0  0  0  0  0
    3.3322   -6.1802   -0.7388 H   0  0  0  0  0  0  0  0  0  0  0  0
    4.3062   -6.6099   -2.1475 H   0  0  0  0  0  0  0  0  0  0  0  0
    2.1867   -5.5601    2.4236 H   0  0  0  0  0  0  0  0  0  0  0  0
    1.3136   -4.0950    1.8410 H   0  0  0  0  0  0  0  0  0  0  0  0
    2.7718   -3.9270    2.9237 H   0  0  0  0  0  0  0  0  0  0  0  0
    2.4602   -1.9523    1.5385 H   0  0  0  0  0  0  0  0  0  0  0  0
    4.7231   -0.1274   -1.6081 H   0  0  0  0  0  0  0  0  0  0  0  0
    5.4233   -0.6981   -3.8378 H   0  0  0  0  0  0  0  0  0  0  0  0
    6.8565   -0.7901   -2.7151 H   0  0  0  0  0  0  0  0  0  0  0  0
    6.8152   -1.7730   -4.2227 H   0  0  0  0  0  0  0  0  0  0  0  0
  1  2  1  0
  2  3  1  0
  3  4  1  0
  4  5  1  0
  1  6  1  0
  5  6  1  0
  7  6  1  0
  7  8  1  0
  8  9  2  0
  8 10  1  0
 10 11  1  0
 11 12  1  0
 12 13  1  0
 13 14  1  0
 15 14  1  0
 10 15  1  0
 15 16  1  0
 16 17  2  0
 16 18  1  0
 18 19  1  0
 19 20  1  0
 20 21  1  0
 21 22  1  0
 22 23  2  0
 22 24  1  0
 24 25  2  0
 25 26  1  0
 26 27  1  0
 27 28  1  0
 26 29  2  0
 23 29  1  0
 29 30  1  0
 30 31  1  0
 19 32  1  0
 32 33  2  0
 32 34  1  0
 34 35  2  0
 35 36  1  0
 36 37  2  0
 33 37  1  0
 37 38  1  0
 38 39  1  0
 39 40  1  0
 40 41  1  0
 40 42  1  0
 42 43  1  0
 42 44  1  0
 44 45  1  0
 45 46  1  0
 46 47  2  0
 47 48  1  0
 48 49  1  0
 47 50  1  0
  7 51  1  0
 50 51  2  0
 51 52  1  0
 52 53  2  0
 46 53  1  0
 53 54  1  0
 54 55  1  0
  1 56  1  0
  1 57  1  0
  2 58  1  0
  2 59  1  0
  3 60  1  0
  3 61  1  0
  4 62  1  0
  4 63  1  0
  5 64  1  0
  5 65  1  0
  6 66  1  0
  7 67  1  6
 11 68  1  0
 11 69  1  0
 12 70  1  0
 12 71  1  0
 13 72  1  0
 13 73  1  0
 14 74  1  0
 14 75  1  0
 15 76  1  1
 19 77  1  6
 20 78  1  0
 20 79  1  0
 21 80  1  0
 21 81  1  0
 23 82  1  0
 24 83  1  0
 25 84  1  0
 28 85  1  0
 28 86  1  0
 28 87  1  0
 31 88  1  0
 31 89  1  0
 31 90  1  0
 33 91  1  0
 34 92  1  0
 35 93  1  0
 36 94  1  0
 39 95  1  0
 39 96  1  0
 40 97  1  1
 41 98  1  0
 42 99  1  6
 43100  1  0
 44101  1  0
 44102  1  0
 49103  1  0
 49104  1  0
 49105  1  0
 50106  1  0
 52107  1  0
 55108  1  0
 55109  1  0
 55110  1  0
M  END
