7N7H_CTP_A_303
     RDKit          3D

 29 30  0  0  0  0  0  0  0  0999 V2000
   29.9448   47.1389  151.2437 N   0  0  0  0  0  0  0  0  0  0  0  0
   29.9665   48.0093  150.1962 C   0  0  0  0  0  0  0  0  0  0  0  0
   30.9440   47.9884  149.2702 N   0  0  0  0  0  0  0  0  0  0  0  0
   31.9700   47.1175  149.2990 C   0  0  0  0  0  0  0  0  0  0  0  0
   31.9728   46.2154  150.3600 C   0  0  0  0  0  0  0  0  0  0  0  0
   30.9564   46.2609  151.2948 C   0  0  0  0  0  0  0  0  0  0  0  0
   29.0581   48.8826  150.0501 O   0  0  0  0  0  0  0  0  0  0  0  0
   32.9791   47.1294  148.3034 N   0  0  0  0  0  0  0  0  0  0  0  0
   28.8735   47.2365  152.1705 C   0  0  1  0  0  0  0  0  0  0  0  0
   27.6212   46.5286  151.8707 C   0  0  2  0  0  0  0  0  0  0  0  0
   26.4984   47.2935  152.2641 O   0  0  0  0  0  0  0  0  0  0  0  0
   27.6718   45.3990  152.9014 C   0  0  1  0  0  0  0  0  0  0  0  0
   28.2400   46.2334  154.0597 C   0  0  2  0  0  0  0  0  0  0  0  0
   29.3343   46.8257  153.4336 O   0  0  0  0  0  0  0  0  0  0  0  0
   26.4097   44.9163  153.2127 O   0  0  0  0  0  0  0  0  0  0  0  0
   28.6751   45.3574  155.1967 C   0  0  0  0  0  0  0  0  0  0  0  0
   27.5695   45.1013  155.9777 O   0  0  0  0  0  0  0  0  0  0  0  0
   27.8071   43.9774  157.1912 P   0  0  2  0  0  5  0  0  0  0  0  0
   27.5127   42.5666  156.8099 O   0  0  0  0  0  0  0  0  0  0  0  0
   26.8683   44.3848  158.5414 O   0  0  0  0  0  0  0  0  0  0  0  0
   29.4343   44.0484  157.6476 O   0  0  0  0  0  0  0  0  0  0  0  0
   29.7474   45.2163  158.8005 P   0  0  1  0  0  5  0  0  0  0  0  0
   31.1588   45.1414  159.3404 O   0  0  0  0  0  0  0  0  0  0  0  0
   29.4959   46.7539  158.1221 O   0  0  0  0  0  0  0  0  0  0  0  0
   28.6780   45.0961  160.1264 O   0  0  0  0  0  0  0  0  0  0  0  0
   29.1488   43.8934  161.2059 P   0  0  2  0  0  5  0  0  0  0  0  0
   30.6574   43.7234  161.2491 O   0  0  0  0  0  0  0  0  0  0  0  0
   28.4706   42.4029  160.7628 O   0  0  0  0  0  0  0  0  0  0  0  0
   28.5532   44.2638  162.7449 O   0  0  0  0  0  0  0  0  0  0  0  0
  1  2  1  0
  2  3  1  0
  3  4  2  0
  4  5  1  0
  1  6  1  0
  5  6  2  0
  2  7  2  0
  4  8  1  0
  9  1  1  6
  9 10  1  0
 10 11  1  1
 10 12  1  0
 12 13  1  0
  9 14  1  0
 13 14  1  6
 12 15  1  1
 13 16  1  0
 16 17  1  6
 18 17  1  0
 18 19  2  0
 18 20  1  1
 18 21  1  0
 22 21  1  0
 22 23  2  0
 22 24  1  6
 22 25  1  0
 25 26  1  0
 26 27  2  0
 26 28  1  6
 26 29  1  0
M  END
$$$$
