7ZHP_IQY_A_408
     RDKit          3D

 51 54  0  0  0  0  0  0  0  0999 V2000
   71.7138   38.7778    0.2256 N   0  0  0  0  0  0  0  0  0  0  0  0
   66.7016   43.2208   -1.9703 C   0  0  1  0  0  0  0  0  0  0  0  0
   73.3615   37.4906   -0.8396 N   0  0  0  0  0  0  0  0  0  0  0  0
   67.4145   41.5243   -0.0163 C   0  0  0  0  0  0  0  0  0  0  0  0
   67.7941   40.6184    1.0343 C   0  0  0  0  0  0  0  0  0  0  0  0
   67.0301   40.5581    2.2207 C   0  0  0  0  0  0  0  0  0  0  0  0
   67.0255   42.6395   -3.2121 O   0  0  0  0  0  0  0  0  0  0  0  0
   67.4852   44.5511   -1.7886 C   0  0  2  0  0  0  0  0  0  0  0  0
   68.7793   44.3954   -0.9862 C   0  0  2  0  0  0  0  0  0  0  0  0
   65.1626   43.4132   -1.9304 C   0  0  2  0  0  0  0  0  0  0  0  0
   64.5527   43.9856   -3.2156 C   0  0  1  0  0  0  0  0  0  0  0  0
   67.0952   42.2851   -0.8951 C   0  0  0  0  0  0  0  0  0  0  0  0
   68.9218   39.7897    0.8722 C   0  0  0  0  0  0  0  0  0  0  0  0
   69.2645   38.9229    1.9186 C   0  0  0  0  0  0  0  0  0  0  0  0
   68.5064   38.8633    3.0589 C   0  0  0  0  0  0  0  0  0  0  0  0
   67.3834   39.6673    3.2468 C   0  0  0  0  0  0  0  0  0  0  0  0
   70.2894   37.9861    2.0507 C   0  0  0  0  0  0  0  0  0  0  0  0
   71.3826   37.7571    1.0626 C   0  0  0  0  0  0  0  0  0  0  0  0
   72.0868   36.5386    0.9505 C   0  0  0  0  0  0  0  0  0  0  0  0
   73.0849   36.4377   -0.0316 C   0  0  0  0  0  0  0  0  0  0  0  0
   72.6843   38.6578   -0.7147 C   0  0  0  0  0  0  0  0  0  0  0  0
   72.9883   39.7563   -1.5709 N   0  0  0  0  0  0  0  0  0  0  0  0
   71.8319   35.3773    1.8670 C   0  0  2  0  0  0  0  0  0  0  0  0
   72.0874   35.7928    3.3170 C   0  0  1  0  0  0  0  0  0  0  0  0
   70.8116   36.2737    4.0017 C   0  0  2  0  0  0  0  0  0  0  0  0
   70.0694   37.3933    3.3150 C   0  0  0  0  0  0  0  0  0  0  0  0
   68.9829   37.9427    3.9059 N   0  0  0  0  0  0  0  0  0  0  0  0
   66.1610   41.1929    2.3444 H   0  0  0  0  0  0  0  0  0  0  0  0
   66.8634   41.6604   -3.1508 H   0  0  0  0  0  0  0  0  0  0  0  0
   66.8402   45.2837   -1.2540 H   0  0  0  0  0  0  0  0  0  0  0  0
   67.7229   45.0049   -2.7748 H   0  0  0  0  0  0  0  0  0  0  0  0
   69.1049   45.3908   -0.6171 H   0  0  0  0  0  0  0  0  0  0  0  0
   69.5906   43.9847   -1.6217 H   0  0  0  0  0  0  0  0  0  0  0  0
   68.6215   43.7317   -0.1103 H   0  0  0  0  0  0  0  0  0  0  0  0
   64.9071   44.0982   -1.0912 H   0  0  0  0  0  0  0  0  0  0  0  0
   64.6669   42.4455   -1.7015 H   0  0  0  0  0  0  0  0  0  0  0  0
   63.4668   43.7656   -3.2695 H   0  0  0  0  0  0  0  0  0  0  0  0
   64.6761   45.0890   -3.2191 H   0  0  0  0  0  0  0  0  0  0  0  0
   65.0602   43.5767   -4.1143 H   0  0  0  0  0  0  0  0  0  0  0  0
   69.4860   39.8203   -0.0492 H   0  0  0  0  0  0  0  0  0  0  0  0
   66.7973   39.6053    4.1547 H   0  0  0  0  0  0  0  0  0  0  0  0
   73.6515   35.5234   -0.1521 H   0  0  0  0  0  0  0  0  0  0  0  0
   73.9766   40.0664   -1.7027 H   0  0  0  0  0  0  0  0  0  0  0  0
   72.2252   40.2590   -2.0760 H   0  0  0  0  0  0  0  0  0  0  0  0
   72.5091   34.5306    1.6184 H   0  0  0  0  0  0  0  0  0  0  0  0
   70.7934   35.0059    1.7239 H   0  0  0  0  0  0  0  0  0  0  0  0
   72.4629   34.9107    3.8806 H   0  0  0  0  0  0  0  0  0  0  0  0
   72.8757   36.5763    3.3844 H   0  0  0  0  0  0  0  0  0  0  0  0
   71.0731   36.6069    5.0290 H   0  0  0  0  0  0  0  0  0  0  0  0
   70.1160   35.4128    4.1060 H   0  0  0  0  0  0  0  0  0  0  0  0
   68.5829   37.6882    4.8370 H   0  0  0  0  0  0  0  0  0  0  0  0
  4  5  1  0
  5  6  2  0
  2  7  1  0
  2  8  1  0
  8  9  1  0
  2 10  1  0
 10 11  1  0
  4 12  3  0
  2 12  1  1
  5 13  1  0
 13 14  2  0
 14 15  1  0
 15 16  2  0
  6 16  1  0
 14 17  1  0
 17 18  1  0
  1 18  2  0
 18 19  1  0
 19 20  2  0
  3 20  1  0
  3 21  2  0
  1 21  1  0
 21 22  1  0
 19 23  1  0
 23 24  1  0
 24 25  1  0
 25 26  1  0
 17 26  2  0
 26 27  1  0
 15 27  1  0
  6 28  1  0
  7 29  1  0
  8 30  1  1
  8 31  1  0
  9 32  1  1
  9 33  1  0
  9 34  1  0
 10 35  1  1
 10 36  1  0
 11 37  1  6
 11 38  1  0
 11 39  1  0
 13 40  1  0
 16 41  1  0
 20 42  1  0
 22 43  1  0
 22 44  1  0
 23 45  1  6
 23 46  1  0
 24 47  1  1
 24 48  1  0
 25 49  1  1
 25 50  1  0
 27 51  1  0
M  END
