7Z7F_IF3_A_606
     RDKit          3D

 26 27  0  0  0  0  0  0  0  0999 V2000
   21.7064   36.6628    6.7940 C   0  0  2  0  0  0  0  0  0  0  0  0
   19.5266   32.5652    1.5313 C   0  0  2  0  0  0  0  0  0  0  0  0
   19.5783   34.7543    2.7889 C   0  0  0  0  0  0  0  0  0  0  0  0
   19.9218   35.9008    2.0813 C   0  0  0  0  0  0  0  0  0  0  0  0
   20.6067   36.8928    2.6937 C   0  0  0  0  0  0  0  0  0  0  0  0
   20.6517   35.7076    4.7059 C   0  0  0  0  0  0  0  0  0  0  0  0
   20.2117   37.4692    0.6899 C   0  0  0  0  0  0  0  0  0  0  0  0
   21.4215   39.1918    2.0870 C   0  0  1  0  0  0  0  0  0  0  0  0
   18.8491   33.6843    2.1737 N   0  0  0  0  0  0  0  0  0  0  0  0
   20.9798   36.8310    3.9942 N   0  0  0  0  0  0  0  0  0  0  0  0
   19.9597   34.6870    4.1014 N   0  0  0  0  0  0  0  0  0  0  0  0
   21.0247   35.5886    6.0827 N   0  0  0  0  0  0  0  0  0  0  0  0
   20.8156   37.8915    1.8295 N   0  0  0  0  0  0  0  0  0  0  0  0
   19.6512   36.2330    0.8042 N   0  0  0  0  0  0  0  0  0  0  0  0
   22.7804   36.6794    6.5125 H   0  0  0  0  0  0  0  0  0  0  0  0
   21.6247   36.5004    7.8894 H   0  0  0  0  0  0  0  0  0  0  0  0
   21.2503   37.6396    6.5277 H   0  0  0  0  0  0  0  0  0  0  0  0
   20.5090   32.3902    2.0183 H   0  0  0  0  0  0  0  0  0  0  0  0
   19.6936   32.7912    0.4570 H   0  0  0  0  0  0  0  0  0  0  0  0
   18.9027   31.6503    1.6129 H   0  0  0  0  0  0  0  0  0  0  0  0
   20.1662   38.0580   -0.2172 H   0  0  0  0  0  0  0  0  0  0  0  0
   22.2484   39.0888    2.8212 H   0  0  0  0  0  0  0  0  0  0  0  0
   21.8235   39.6081    1.1399 H   0  0  0  0  0  0  0  0  0  0  0  0
   20.6636   39.8895    2.5019 H   0  0  0  0  0  0  0  0  0  0  0  0
   17.8040   33.6989    2.1809 H   0  0  0  0  0  0  0  0  0  0  0  0
   20.8022   34.7052    6.5946 H   0  0  0  0  0  0  0  0  0  0  0  0
  3  4  2  0
  4  5  1  0
  2  9  1  0
  3  9  1  0
  5 10  2  0
  6 10  1  0
  3 11  1  0
  6 11  2  0
  6 12  1  0
  1 12  1  0
  7 13  1  0
  5 13  1  0
  8 13  1  0
  7 14  2  0
  4 14  1  0
  1 15  1  6
  1 16  1  0
  1 17  1  0
  2 18  1  1
  2 19  1  0
  2 20  1  0
  7 21  1  0
  8 22  1  1
  8 23  1  0
  8 24  1  0
  9 25  1  0
 12 26  1  0
M  END
