8DSC_NCA_B_1101
     RDKit          3D

 15 15  0  0  0  0  0  0  0  0999 V2000
   14.3025    3.6733   14.5016 N   0  0  0  0  0  0  0  0  0  0  0  0
   13.5813    3.4533   13.3700 C   0  0  0  0  0  0  0  0  0  0  0  0
   13.9622    4.0510   12.1551 C   0  0  0  0  0  0  0  0  0  0  0  0
   15.1118    4.8605   12.1449 C   0  0  0  0  0  0  0  0  0  0  0  0
   15.8342    5.0686   13.3214 C   0  0  0  0  0  0  0  0  0  0  0  0
   15.4083    4.4624   14.5030 C   0  0  0  0  0  0  0  0  0  0  0  0
   13.1752    3.8038   10.9222 C   0  0  0  0  0  0  0  0  0  0  0  0
   12.3012    2.8952   10.9128 O   0  0  0  0  0  0  0  0  0  0  0  0
   13.3714    4.5838    9.7395 N   0  0  0  0  0  0  0  0  0  0  0  0
   12.7055    2.8193   13.4229 H   0  0  0  0  0  0  0  0  0  0  0  0
   15.4714    5.3144   11.2318 H   0  0  0  0  0  0  0  0  0  0  0  0
   16.7208    5.6895   13.3157 H   0  0  0  0  0  0  0  0  0  0  0  0
   15.9597    4.6149   15.4211 H   0  0  0  0  0  0  0  0  0  0  0  0
   12.6769    5.3194    9.4811 H   0  0  0  0  0  0  0  0  0  0  0  0
   14.2378    4.5037    9.1643 H   0  0  0  0  0  0  0  0  0  0  0  0
  1  2  2  0
  2  3  1  0
  3  4  2  0
  4  5  1  0
  1  6  1  0
  5  6  2  0
  3  7  1  0
  7  8  2  0
  7  9  1  0
  2 10  1  0
  4 11  1  0
  5 12  1  0
  6 13  1  0
  9 14  1  0
  9 15  1  0
M  END
