7AS1_21G_A_501
     RDKit          3D

 29 33  0  0  0  0  0  0  0  0999 V2000
   -7.1110   13.9727   -2.4122 C   0  0  0  0  0  0  0  0  0  0  0  0
   -7.6985   14.6860   -1.3651 C   0  0  0  0  0  0  0  0  0  0  0  0
   -8.8391   14.1497   -0.7748 C   0  0  0  0  0  0  0  0  0  0  0  0
   -8.7509   12.2898   -2.2483 C   0  0  0  0  0  0  0  0  0  0  0  0
   -7.6127   12.7838   -2.8681 C   0  0  0  0  0  0  0  0  0  0  0  0
   -7.2198   11.9131   -3.8640 C   0  0  0  0  0  0  0  0  0  0  0  0
   -9.3456   12.9659   -1.2228 N   0  0  0  0  0  0  0  0  0  0  0  0
   -8.1416   10.8836   -3.8347 C   0  0  0  0  0  0  0  0  0  0  0  0
   -9.0363   11.1274   -2.8727 N   0  0  0  0  0  0  0  0  0  0  0  0
   -6.0636   12.0626   -4.7582 C   0  0  0  0  0  0  0  0  0  0  0  0
   -5.7076   11.0585   -5.6127 N   0  0  0  0  0  0  0  0  0  0  0  0
   -4.6358   11.2144   -6.4327 C   0  0  0  0  0  0  0  0  0  0  0  0
   -3.9469   12.4111   -6.3550 C   0  0  0  0  0  0  0  0  0  0  0  0
   -4.2781   13.4366   -5.5088 C   0  0  0  0  0  0  0  0  0  0  0  0
   -5.3692   13.2087   -4.7129 N   0  0  0  0  0  0  0  0  0  0  0  0
   -3.6094   14.6586   -5.3719 N   0  0  0  0  0  0  0  0  0  0  0  0
   -4.0005   15.8054   -4.5962 C   0  0  2  0  0  0  0  0  0  0  0  0
   -3.0519   16.9542   -4.6261 C   0  0  2  0  0  0  0  0  0  0  0  0
   -2.2049   16.9270   -3.3430 C   0  0  2  0  0  0  0  0  0  0  0  0
   -1.7281   15.4988   -3.2095 C   0  0  0  0  0  0  0  0  0  0  0  0
   -2.9218   14.7173   -2.6697 C   0  0  0  0  0  0  0  0  0  0  0  0
   -4.1958   15.3937   -3.1297 C   0  0  1  0  0  0  0  0  0  0  0  0
   -4.3825   16.5999   -2.2388 C   0  0  0  0  0  0  0  0  0  0  0  0
   -3.0268   17.2932   -2.1504 C   0  0  0  0  0  0  0  0  0  0  0  0
   -3.6417   18.2898   -4.7432 C   0  0  0  0  0  0  0  0  0  0  0  0
   -2.8031   19.3151   -5.2188 O   0  0  0  0  0  0  0  0  0  0  0  0
   -4.8078   18.6178   -4.4670 O   0  0  0  0  0  0  0  0  0  0  0  0
   -2.8983   12.5603   -7.1870 F   0  0  0  0  0  0  0  0  0  0  0  0
   -7.1610   15.8598   -0.9516 F   0  0  0  0  0  0  0  0  0  0  0  0
  1  2  2  0
  2  3  1  0
  4  5  2  0
  1  5  1  0
  5  6  1  0
  4  7  1  0
  3  7  2  0
  6  8  2  0
  4  9  1  0
  8  9  1  0
  6 10  1  0
 10 11  2  0
 11 12  1  0
 12 13  2  0
 13 14  1  0
 10 15  1  0
 14 15  2  0
 14 16  1  0
 17 16  1  6
 17 18  1  0
 18 19  1  0
 19 20  1  1
 20 21  1  0
 17 22  1  0
 22 21  1  1
 22 23  1  0
 23 24  1  0
 19 24  1  0
 18 25  1  1
 25 26  1  0
 25 27  2  0
 13 28  1  0
  2 29  1  0
M  END
$$$$
