7BTT_F8R_A_1501
     RDKit          3D

 40 44  0  0  0  0  0  0  0  0999 V2000
    3.8615   18.1679    8.0817 N   0  0  0  0  0  0  0  0  0  0  0  0
    2.7449   18.2278    8.8195 C   0  0  0  0  0  0  0  0  0  0  0  0
    1.8371   20.2714    7.7062 C   0  0  0  0  0  0  0  0  0  0  0  0
    3.1158   21.8513    6.4502 C   0  0  0  0  0  0  0  0  0  0  0  0
    0.6761   20.6684    7.0323 C   0  0  0  0  0  0  0  0  0  0  0  0
   -1.7114   20.3120    6.7634 C   0  0  0  0  0  0  0  0  0  0  0  0
    3.6054   23.8317    5.4365 C   0  0  0  0  0  0  0  0  0  0  0  0
    5.5579   22.2118    6.0286 C   0  0  0  0  0  0  0  0  0  0  0  0
    9.9836   19.1694    8.2732 C   0  0  0  0  0  0  0  0  0  0  0  0
   10.4376   18.0432    7.3461 C   0  0  2  0  0  0  0  0  0  0  0  0
    7.8363   17.7213    6.1048 C   0  0  0  0  0  0  0  0  0  0  0  0
    8.1990   18.4141    4.9375 C   0  0  0  0  0  0  0  0  0  0  0  0
    7.3135   19.1019    4.1622 C   0  0  0  0  0  0  0  0  0  0  0  0
    5.9973   19.1239    4.5340 C   0  0  0  0  0  0  0  0  0  0  0  0
    5.6073   18.4586    5.6658 C   0  0  0  0  0  0  0  0  0  0  0  0
    6.5196   17.7434    6.4736 C   0  0  0  0  0  0  0  0  0  0  0  0
    4.7499   17.1732    8.2301 C   0  0  0  0  0  0  0  0  0  0  0  0
    3.0634   20.8608    7.4183 C   0  0  0  0  0  0  0  0  0  0  0  0
    1.9607   22.2225    5.8027 C   0  0  0  0  0  0  0  0  0  0  0  0
    0.7299   21.6534    6.0691 C   0  0  0  0  0  0  0  0  0  0  0  0
    2.3207   23.2723    4.8444 C   0  0  0  0  0  0  0  0  0  0  0  0
    6.7231   22.7850    5.3461 C   0  0  0  0  0  0  0  0  0  0  0  0
    8.3945   22.7981    7.0501 C   0  0  0  0  0  0  0  0  0  0  0  0
    7.8602   20.7717    5.9383 C   0  0  0  0  0  0  0  0  0  0  0  0
    3.2909   16.2700    9.9558 C   0  0  0  0  0  0  0  0  0  0  0  0
    4.4348   16.2169    9.1945 C   0  0  0  0  0  0  0  0  0  0  0  0
    4.4308   14.4712   10.5523 C   0  0  0  0  0  0  0  0  0  0  0  0
    3.2701   15.1870   10.8109 C   0  0  0  0  0  0  0  0  0  0  0  0
   11.1762   18.6423    6.1979 C   0  0  0  0  0  0  0  0  0  0  0  0
    5.9277   17.0096    7.5088 N   0  0  0  0  0  0  0  0  0  0  0  0
    1.7842   19.2786    8.7021 N   0  0  0  0  0  0  0  0  0  0  0  0
    4.2293   22.6349    5.9658 N   0  0  0  0  0  0  0  0  0  0  0  0
    8.0063   22.2321    5.7450 N   0  0  0  0  0  0  0  0  0  0  0  0
    2.4487   17.2817    9.7614 N   0  0  0  0  0  0  0  0  0  0  0  0
    5.1001   15.1116    9.5858 N   0  0  0  0  0  0  0  0  0  0  0  0
   -0.4867   20.0149    7.3997 O   0  0  0  0  0  0  0  0  0  0  0  0
    5.8116   21.1890    6.7728 O   0  0  0  0  0  0  0  0  0  0  0  0
    8.5668   16.2957    8.2094 O   0  0  0  0  0  0  0  0  0  0  0  0
    9.6556   15.8025    6.1143 O   0  0  0  0  0  0  0  0  0  0  0  0
    9.1296   16.9587    6.9623 S   0  0  2  0  0  0  0  0  0  0  0  0
  1  2  2  0
  3  5  2  0
 10  9  1  6
 11 12  2  0
 12 13  1  0
 13 14  2  0
 14 15  1  0
 15 16  2  0
 11 16  1  0
  1 17  1  0
  4 18  2  0
  3 18  1  0
  4 19  1  0
 19 20  2  0
  5 20  1  0
  7 21  1  0
 19 21  1  0
  8 22  1  0
 17 26  2  0
 25 26  1  0
 25 28  1  0
 27 28  2  0
 10 29  1  0
 16 30  1  0
 17 30  1  0
  3 31  1  0
  2 31  1  0
  7 32  1  0
  4 32  1  0
  8 32  1  0
 24 33  1  0
 22 33  1  0
 23 33  1  0
  2 34  1  0
 25 34  2  0
 26 35  1  0
 27 35  1  0
  6 36  1  0
  5 36  1  0
  8 37  2  0
 40 11  1  6
 39 40  2  0
 38 40  2  0
 10 40  1  0
M  END
$$$$
