7AN5_RDH_A_301
     RDKit          3D

 15 15  0  0  0  0  0  0  0  0999 V2000
   16.6629   -5.5042   17.6009 C   0  0  0  0  0  0  0  0  0  0  0  0
   15.6194   -4.7284   17.3996 C   0  0  0  0  0  0  0  0  0  0  0  0
   13.7251   -3.7733   18.5664 C   0  0  0  0  0  0  0  0  0  0  0  0
   12.8346   -4.8335   18.6021 C   0  0  0  0  0  0  0  0  0  0  0  0
   11.4749   -4.5848   18.7280 C   0  0  0  0  0  0  0  0  0  0  0  0
   11.0084   -3.2867   18.8295 C   0  0  0  0  0  0  0  0  0  0  0  0
   11.9048   -2.2270   18.8007 C   0  0  0  0  0  0  0  0  0  0  0  0
   11.4177   -0.7826   18.9146 C   0  0  0  0  0  0  0  0  0  0  0  0
   13.2620   -2.4724   18.6747 C   0  0  0  0  0  0  0  0  0  0  0  0
   15.0450   -4.6131   15.9930 C   0  0  0  0  0  0  0  0  0  0  0  0
   15.1018   -3.9892   18.4657 O   0  0  0  0  0  0  0  0  0  0  0  0
   10.1918   -0.5229   19.0744 O   0  0  0  0  0  0  0  0  0  0  0  0
   12.2513    0.1553   18.8485 O   0  0  0  0  0  0  0  0  0  0  0  0
   15.6777   -5.1163   15.0373 O   0  0  0  0  0  0  0  0  0  0  0  0
   13.9742   -3.9949   15.7798 O   0  0  0  0  0  0  0  0  0  0  0  0
  1  2  2  0
  3  4  2  0
  4  5  1  0
  5  6  2  0
  6  7  1  0
  7  8  1  0
  3  9  1  0
  7  9  2  0
  2 10  1  0
  2 11  1  0
  3 11  1  0
  8 12  1  0
  8 13  2  0
 10 14  2  0
 10 15  1  0
M  END
