7WUX_6OI_C_402
     RDKit          3D

 33 32  0  0  0  0  0  0  0  0999 V2000
   22.0003   -9.4254  -22.2614 N   0  0  0  0  0  0  0  0  0  0  0  0
   25.0360  -11.7026  -22.6847 C   0  0  2  0  0  0  0  0  0  0  0  0
   25.1764  -13.0693  -21.9753 C   0  0  1  0  0  0  0  0  0  0  0  0
   26.5854  -13.3718  -21.3814 C   0  0  2  0  0  0  0  0  0  0  0  0
   26.7602  -12.8227  -19.9532 C   0  0  1  0  0  0  0  0  0  0  0  0
   23.2253   -9.8828  -22.9227 C   0  0  2  0  0  0  0  0  0  0  0  0
   22.9024  -10.6526  -24.1758 C   0  0  0  0  0  0  0  0  0  0  0  0
   21.8774  -11.3849  -24.2346 O   0  0  0  0  0  0  0  0  0  0  0  0
   23.7670  -10.5857  -25.2639 O   0  0  0  0  0  0  0  0  0  0  0  0
   24.0927  -10.7218  -21.9610 C   0  0  2  0  0  0  0  0  0  0  0  0
   24.2193  -13.1242  -20.9474 O   0  0  0  0  0  0  0  0  0  0  0  0
   27.6442  -12.8635  -22.2582 N   0  0  0  0  0  0  0  0  0  0  0  0
   25.6283  -12.0630  -19.6016 O   0  0  0  0  0  0  0  0  0  0  0  0
   25.7795  -11.5964  -17.9798 S   0  0  2  0  0  6  0  0  0  0  0  0
   27.1326  -10.9842  -17.7460 O   0  0  0  0  0  0  0  0  0  0  0  0
   25.6395  -12.8111  -17.1067 O   0  0  0  0  0  0  0  0  0  0  0  0
   24.5828  -10.4873  -17.5705 O   0  0  0  0  0  0  0  0  0  0  0  0
   21.3419  -10.2358  -22.1926 H   0  0  0  0  0  0  0  0  0  0  0  0
   21.5320   -8.7257  -22.8822 H   0  0  0  0  0  0  0  0  0  0  0  0
   24.7046  -11.8460  -23.7350 H   0  0  0  0  0  0  0  0  0  0  0  0
   26.0509  -11.2533  -22.7300 H   0  0  0  0  0  0  0  0  0  0  0  0
   24.9318  -13.8578  -22.7263 H   0  0  0  0  0  0  0  0  0  0  0  0
   26.6885  -14.4806  -21.3277 H   0  0  0  0  0  0  0  0  0  0  0  0
   26.8878  -13.6761  -19.2502 H   0  0  0  0  0  0  0  0  0  0  0  0
   27.6688  -12.1807  -19.9261 H   0  0  0  0  0  0  0  0  0  0  0  0
   23.8209   -8.9906  -23.2227 H   0  0  0  0  0  0  0  0  0  0  0  0
   23.7517   -9.7907  -25.8914 H   0  0  0  0  0  0  0  0  0  0  0  0
   24.6857  -10.0375  -21.3151 H   0  0  0  0  0  0  0  0  0  0  0  0
   23.4050  -11.2935  -21.3038 H   0  0  0  0  0  0  0  0  0  0  0  0
   24.0287  -14.0838  -20.7765 H   0  0  0  0  0  0  0  0  0  0  0  0
   28.4088  -13.5754  -22.3090 H   0  0  0  0  0  0  0  0  0  0  0  0
   27.2630  -12.7868  -23.2292 H   0  0  0  0  0  0  0  0  0  0  0  0
   24.6680   -9.7633  -18.2412 H   0  0  0  0  0  0  0  0  0  0  0  0
  2  3  1  0
  3  4  1  0
  4  5  1  0
  6  1  1  0
  6  7  1  0
  7  8  2  0
  7  9  1  0
  2 10  1  0
  6 10  1  0
  3 11  1  0
  4 12  1  0
  5 13  1  0
 14 13  1  6
 14 15  2  0
 14 16  2  0
 14 17  1  0
  1 18  1  0
  1 19  1  0
  2 20  1  6
  2 21  1  0
  3 22  1  6
  4 23  1  1
  5 24  1  1
  5 25  1  0
  6 26  1  6
  9 27  1  0
 10 28  1  1
 10 29  1  0
 11 30  1  0
 12 31  1  0
 12 32  1  0
 17 33  1  0
M  END
