1HVY_D16_D_417
     RDKit          3D

 32 34  0  0  0  0  0  0  0  0999 V2000
   30.0455   28.4360   24.7274 N   0  0  0  0  0  0  0  0  0  0  0  0
   29.7663   28.1355   26.0316 C   0  0  0  0  0  0  0  0  0  0  0  0
   30.1152   29.0532   27.1184 C   0  0  0  0  0  0  0  0  0  0  0  0
   29.1564   26.9668   26.3453 N   0  0  0  0  0  0  0  0  0  0  0  0
   28.8011   26.0711   25.3881 C   0  0  0  0  0  0  0  0  0  0  0  0
   28.2081   24.9009   25.7812 O   0  0  0  0  0  0  0  0  0  0  0  0
   29.0496   26.3357   24.0205 C   0  0  0  0  0  0  0  0  0  0  0  0
   28.6647   25.4526   22.9802 C   0  0  0  0  0  0  0  0  0  0  0  0
   28.9262   25.7848   21.6016 C   0  0  0  0  0  0  0  0  0  0  0  0
   29.5929   27.0123   21.2988 C   0  0  0  0  0  0  0  0  0  0  0  0
   29.9796   27.9039   22.3458 C   0  0  0  0  0  0  0  0  0  0  0  0
   29.7058   27.5796   23.7156 C   0  0  0  0  0  0  0  0  0  0  0  0
   28.5105   24.9024   20.4592 C   0  0  0  0  0  0  0  0  0  0  0  0
   28.4283   23.4375   20.7339 N   0  0  0  0  0  0  0  0  0  0  0  0
   25.1426   22.3265   22.5119 C   0  0  0  0  0  0  0  0  0  0  0  0
   25.9221   23.6964   21.8971 S   0  0  0  0  0  0  0  0  0  0  0  0
   27.3368   22.8459   21.3537 C   0  0  0  0  0  0  0  0  0  0  0  0
   27.2081   21.4999   21.6468 C   0  0  0  0  0  0  0  0  0  0  0  0
   25.9038   21.1908   22.3337 C   0  0  0  0  0  0  0  0  0  0  0  0
   23.8290   22.3445   23.1309 C   0  0  0  0  0  0  0  0  0  0  0  0
   23.1210   23.3579   23.0197 O   0  0  0  0  0  0  0  0  0  0  0  0
   23.4266   21.2593   23.8023 N   0  0  0  0  0  0  0  0  0  0  0  0
   22.0453   21.0220   24.2985 C   0  0  1  0  0  0  0  0  0  0  0  0
   21.0355   22.1353   24.0098 C   0  0  0  0  0  0  0  0  0  0  0  0
   21.1560   23.0875   22.8502 C   0  0  0  0  0  0  0  0  0  0  0  0
   20.2438   24.2950   23.0905 C   0  0  0  0  0  0  0  0  0  0  0  0
   20.7235   25.4369   23.1406 O   0  0  0  0  0  0  0  0  0  0  0  0
   19.0304   24.1148   23.2399 O   0  0  0  0  0  0  0  0  0  0  0  0
   21.5428   19.7596   23.6163 C   0  0  0  0  0  0  0  0  0  0  0  0
   22.2323   18.7266   23.6760 O   0  0  0  0  0  0  0  0  0  0  0  0
   20.4667   19.7960   23.0186 O   0  0  0  0  0  0  0  0  0  0  0  0
   29.5880   22.6390   20.3139 C   0  0  0  0  0  0  0  0  0  0  0  0
  1  2  1  0
  2  3  1  0
  2  4  2  0
  4  5  1  0
  5  6  2  0
  5  7  1  0
  7  8  1  0
  8  9  2  0
  9 10  1  0
 10 11  2  0
  1 12  1  0
  7 12  2  0
 11 12  1  0
  9 13  1  0
 13 14  1  0
 15 16  1  0
 14 17  1  0
 16 17  1  0
 17 18  2  0
 15 19  2  0
 18 19  1  0
 15 20  1  0
 20 21  2  0
 20 22  1  0
 22 23  1  0
 23 24  1  6
 24 25  1  0
 25 26  1  0
 26 27  2  0
 26 28  1  0
 23 29  1  0
 29 30  2  0
 29 31  1  0
 14 32  1  0
M  END
