
     RDKit          3D

 30 33  0  0  0  0  0  0  0  0999 V2000
   79.5486   46.9845   52.8586 C   0  0  0  0  0  0  0  0  0  0  0  0
   80.7080   47.9315   53.0302 C   0  0  0  0  0  0  0  0  0  0  0  0
   81.6898   48.0425   52.0397 C   0  0  0  0  0  0  0  0  0  0  0  0
   80.8068   50.6610   56.6828 C   0  0  0  0  0  0  0  0  0  0  0  0
   79.4805   51.1003   56.0351 C   0  0  0  0  0  0  0  0  0  0  0  0
   81.0823   51.5330   57.9207 C   0  0  0  0  0  0  0  0  0  0  0  0
   80.8067   48.7160   54.1933 C   0  0  0  0  0  0  0  0  0  0  0  0
   82.7767   48.9103   52.1956 C   0  0  0  0  0  0  0  0  0  0  0  0
   83.8105   49.0329   51.1550 C   0  0  0  0  0  0  0  0  0  0  0  0
   84.7853   48.0369   50.9787 C   0  0  0  0  0  0  0  0  0  0  0  0
   85.7664   48.1563   49.9910 C   0  0  0  0  0  0  0  0  0  0  0  0
   85.7876   49.2731   49.1600 C   0  0  0  0  0  0  0  0  0  0  0  0
   84.8310   50.2725   49.3177 C   0  0  0  0  0  0  0  0  0  0  0  0
   83.8516   50.1529   50.3069 C   0  0  0  0  0  0  0  0  0  0  0  0
   82.8533   49.6656   53.3791 C   0  0  0  0  0  0  0  0  0  0  0  0
   81.8689   49.6073   54.3989 C   0  0  0  0  0  0  0  0  0  0  0  0
   82.0420   50.4460   55.6879 C   0  0  1  0  0  0  0  0  0  0  0  0
   82.4773   51.8210   55.1845 C   0  0  0  0  0  0  0  0  0  0  0  0
   82.0448   52.7442   54.1869 C   0  0  0  0  0  0  0  0  0  0  0  0
   80.9414   52.6447   53.1964 C   0  0  0  0  0  0  0  0  0  0  0  0
   83.5699   52.4349   55.7472 C   0  0  0  0  0  0  0  0  0  0  0  0
   84.2791   50.6035   56.9713 C   0  0  0  0  0  0  0  0  0  0  0  0
   83.2339   49.8518   56.5265 C   0  0  0  0  0  0  0  0  0  0  0  0
   83.2357   48.4435   56.7783 C   0  0  0  0  0  0  0  0  0  0  0  0
   82.7967   53.8586   54.1894 N   0  0  0  0  0  0  0  0  0  0  0  0
   83.7118   53.6428   55.1493 N   0  0  0  0  0  0  0  0  0  0  0  0
   85.3353   50.1393   57.7230 N   0  0  0  0  0  0  0  0  0  0  0  0
   83.2295   47.3068   57.0140 N   0  0  0  0  0  0  0  0  0  0  0  0
   79.5026   46.0521   53.9309 O   0  0  0  0  0  0  0  0  0  0  0  0
   84.3959   51.9664   56.6716 O   0  0  0  0  0  0  0  0  0  0  0  0
  1  2  1  0
  2  3  4  0
  4  5  1  0
  4  6  1  0
  2  7  4  0
  3  8  4  0
  8  9  1  0
  9 10  4  0
 10 11  4  0
 11 12  4  0
 12 13  4  0
  9 14  4  0
 13 14  4  0
  8 15  4  0
 15 16  4  0
  7 16  4  0
 17  4  1  1
 16 17  1  0
 17 18  1  0
 18 19  4  0
 19 20  1  0
 18 21  4  0
 22 23  2  0
 17 23  1  0
 23 24  1  0
 19 25  4  0
 21 26  4  0
 25 26  4  0
 22 27  1  0
 24 28  3  0
  1 29  1  0
 22 30  1  0
 21 30  1  0
M  END
