8H0M_2EH_A_405
     RDKit          3D

 27 26  0  0  0  0  0  0  0  0999 V2000
   28.5544   19.8490   19.6431 C   0  0  2  0  0  0  0  0  0  0  0  0
   28.2978   17.3630   20.2109 C   0  0  1  0  0  0  0  0  0  0  0  0
   27.4678   16.3913   19.3705 C   0  0  1  0  0  0  0  0  0  0  0  0
   27.7944   17.1071   17.5256 C   0  0  1  0  0  0  0  0  0  0  0  0
   29.0656   18.4166   19.3684 C   0  0  1  0  0  0  0  0  0  0  0  0
   27.2080   19.8273   20.0284 O   0  0  0  0  0  0  0  0  0  0  0  0
   28.9452   18.0803   17.8498 C   0  0  1  0  0  0  0  0  0  0  0  0
   28.0863   16.1329   16.3717 C   0  0  2  0  0  0  0  0  0  0  0  0
   28.6843   14.8103   16.8512 C   0  0  2  0  0  0  0  0  0  0  0  0
   28.6843   20.4811   18.7355 H   0  0  0  0  0  0  0  0  0  0  0  0
   29.1430   20.3024   20.4725 H   0  0  0  0  0  0  0  0  0  0  0  0
   27.5950   17.8787   20.8977 H   0  0  0  0  0  0  0  0  0  0  0  0
   29.0066   16.7872   20.8453 H   0  0  0  0  0  0  0  0  0  0  0  0
   27.2069   15.5040   19.9853 H   0  0  0  0  0  0  0  0  0  0  0  0
   26.5255   16.8710   19.0308 H   0  0  0  0  0  0  0  0  0  0  0  0
   28.0451   16.0329   18.4945 H   0  0  0  0  0  0  0  0  0  0  0  0
   27.5500   16.5224   18.4395 H   0  0  0  0  0  0  0  0  0  0  0  0
   26.8861   17.6971   17.2742 H   0  0  0  0  0  0  0  0  0  0  0  0
   30.1398   18.3921   19.6595 H   0  0  0  0  0  0  0  0  0  0  0  0
   26.9978   18.8823   20.2469 H   0  0  0  0  0  0  0  0  0  0  0  0
   29.8761   17.5947   17.4833 H   0  0  0  0  0  0  0  0  0  0  0  0
   28.8516   19.0016   17.2361 H   0  0  0  0  0  0  0  0  0  0  0  0
   28.7539   16.6005   15.6187 H   0  0  0  0  0  0  0  0  0  0  0  0
   27.1264   15.9081   15.8584 H   0  0  0  0  0  0  0  0  0  0  0  0
   29.4240   15.0107   17.6548 H   0  0  0  0  0  0  0  0  0  0  0  0
   29.2031   14.2941   16.0157 H   0  0  0  0  0  0  0  0  0  0  0  0
   27.8997   14.1441   17.2634 H   0  0  0  0  0  0  0  0  0  0  0  0
  2  3  1  0
  5  1  1  0
  2  5  1  0
  1  6  1  0
  4  7  1  0
  5  7  1  0
  4  8  1  0
  8  9  1  0
  1 10  1  6
  1 11  1  0
  2 12  1  1
  2 13  1  0
  3 14  1  1
  3 15  1  0
  3 16  1  0
  4 17  1  1
  4 18  1  0
  5 19  1  1
  6 20  1  0
  7 21  1  6
  7 22  1  0
  8 23  1  6
  8 24  1  0
  9 25  1  1
  9 26  1  0
  9 27  1  0
M  END
