7UMV_NUU_A_501
     RDKit          3D

 41 43  0  0  0  0  0  0  0  0999 V2000
  -36.2464   25.4104    0.6127 C   0  0  2  0  0  0  0  0  0  0  0  0
  -33.8634   24.6138    0.4328 C   0  0  0  0  0  0  0  0  0  0  0  0
  -31.7320   23.6224    0.7904 C   0  0  0  0  0  0  0  0  0  0  0  0
  -34.2729   23.5058   -0.3352 C   0  0  0  0  0  0  0  0  0  0  0  0
  -35.6383   23.4812   -0.9055 C   0  0  0  0  0  0  0  0  0  0  0  0
  -33.8000   18.6239   -2.0723 C   0  0  1  0  0  0  0  0  0  0  0  0
  -34.3223   19.9295   -1.4384 C   0  0  1  0  0  0  0  0  0  0  0  0
  -35.1250   19.5911   -0.1678 C   0  0  1  0  0  0  0  0  0  0  0  0
  -33.1052   20.7948   -1.0424 C   0  0  2  0  0  0  0  0  0  0  0  0
  -35.2520   20.6310   -2.4334 C   0  0  0  0  0  0  0  0  0  0  0  0
  -36.5373   20.0270   -2.9493 C   0  0  1  0  0  0  0  0  0  0  0  0
  -37.2343   22.5347   -2.3752 C   0  0  0  0  0  0  0  0  0  0  0  0
  -37.8672   24.3779   -1.0371 C   0  0  0  0  0  0  0  0  0  0  0  0
  -36.5821   24.4350   -0.4882 C   0  0  0  0  0  0  0  0  0  0  0  0
  -34.7638   25.8126    0.5765 C   0  0  1  0  0  0  0  0  0  0  0  0
  -32.1002   22.5022    0.0432 C   0  0  0  0  0  0  0  0  0  0  0  0
  -33.3740   22.4452   -0.5247 C   0  0  0  0  0  0  0  0  0  0  0  0
  -38.1652   23.4369   -1.9692 N   0  0  0  0  0  0  0  0  0  0  0  0
  -32.6084   24.6476    0.9590 N   0  0  0  0  0  0  0  0  0  0  0  0
  -35.9863   22.5559   -1.8400 N   0  0  0  0  0  0  0  0  0  0  0  0
  -34.9209   21.7229   -2.8753 O   0  0  0  0  0  0  0  0  0  0  0  0
  -37.6556   21.3115   -3.6125 S   0  0  0  0  0  0  0  0  0  0  0  0
  -36.4737   24.9328    1.5901 H   0  0  0  0  0  0  0  0  0  0  0  0
  -36.8696   26.3266    0.5219 H   0  0  0  0  0  0  0  0  0  0  0  0
  -30.7451   23.6809    1.2295 H   0  0  0  0  0  0  0  0  0  0  0  0
  -33.1910   18.8475   -2.9752 H   0  0  0  0  0  0  0  0  0  0  0  0
  -33.1659   18.0619   -1.3527 H   0  0  0  0  0  0  0  0  0  0  0  0
  -34.6413   17.9628   -2.3736 H   0  0  0  0  0  0  0  0  0  0  0  0
  -34.9692   20.3652    0.6146 H   0  0  0  0  0  0  0  0  0  0  0  0
  -36.2116   19.5400   -0.3960 H   0  0  0  0  0  0  0  0  0  0  0  0
  -34.8108   18.6098    0.2497 H   0  0  0  0  0  0  0  0  0  0  0  0
  -32.9357   21.6027   -1.7859 H   0  0  0  0  0  0  0  0  0  0  0  0
  -32.1831   20.1750   -1.0036 H   0  0  0  0  0  0  0  0  0  0  0  0
  -33.2430   21.2486   -0.0392 H   0  0  0  0  0  0  0  0  0  0  0  0
  -36.3272   19.2818   -3.7420 H   0  0  0  0  0  0  0  0  0  0  0  0
  -37.0563   19.4784   -2.1332 H   0  0  0  0  0  0  0  0  0  0  0  0
  -38.6324   25.0752   -0.7218 H   0  0  0  0  0  0  0  0  0  0  0  0
  -34.5881   26.4917   -0.2857 H   0  0  0  0  0  0  0  0  0  0  0  0
  -34.5137   26.3649    1.5080 H   0  0  0  0  0  0  0  0  0  0  0  0
  -31.4032   21.6861   -0.0962 H   0  0  0  0  0  0  0  0  0  0  0  0
  -33.6563   21.5740   -1.1023 H   0  0  0  0  0  0  0  0  0  0  0  0
  2  4  2  0
  4  5  1  0
  6  7  1  0
  7  8  1  0
  7  9  1  0
  7 10  1  6
 10 11  1  0
  1 14  1  0
  5 14  2  0
 13 14  1  0
  2 15  1  0
  1 15  1  0
  3 16  1  0
 16 17  2  0
  4 17  1  0
 13 18  2  0
 12 18  1  0
  3 19  2  0
  2 19  1  0
  5 20  1  0
 12 20  2  0
 10 21  2  0
 12 22  1  0
 11 22  1  0
  1 23  1  1
  1 24  1  0
  3 25  1  0
  6 26  1  6
  6 27  1  0
  6 28  1  0
  8 29  1  1
  8 30  1  0
  8 31  1  0
  9 32  1  6
  9 33  1  0
  9 34  1  0
 11 35  1  6
 11 36  1  0
 13 37  1  0
 15 38  1  6
 15 39  1  0
 16 40  1  0
 17 41  1  0
M  END
