7P4J_5JK_A_904
     RDKit          3D

 29 32  0  0  0  0  0  0  0  0999 V2000
   11.9530   25.3930   -3.5080 C   0  0  0  0  0  0  0  0  0  0  0  0
   10.8990   26.4390   -2.9870 C   0  0  2  0  0  0  0  0  0  0  0  0
    9.7660   26.3250   -3.9170 C   0  0  0  0  0  0  0  0  0  0  0  0
   10.1710   26.7230   -5.4370 C   0  0  0  0  0  0  0  0  0  0  0  0
   10.7970   28.1150   -5.5020 C   0  0  2  0  0  0  0  0  0  0  0  0
   11.2090   28.5080   -7.0070 C   0  0  1  0  0  0  0  0  0  0  0  0
   12.1310   27.3790   -7.5800 C   0  0  0  0  0  0  0  0  0  0  0  0
    9.8800   28.5040   -7.8400 C   0  0  0  0  0  0  0  0  0  0  0  0
   10.0600   29.1970   -9.1820 C   0  0  0  0  0  0  0  0  0  0  0  0
   10.5310   30.5870   -8.9240 C   0  0  2  0  0  0  0  0  0  0  0  0
   10.5500   31.3240  -10.1330 O   0  0  0  0  0  0  0  0  0  0  0  0
   11.9340   30.6260   -8.3010 C   0  0  0  0  0  0  0  0  0  0  0  0
   11.9480   29.7970   -7.0180 C   0  0  0  0  0  0  0  0  0  0  0  0
   13.0250   30.0810   -5.9100 C   0  0  0  0  0  0  0  0  0  0  0  0
   12.5630   29.7340   -4.5260 C   0  0  1  0  0  0  0  0  0  0  0  0
   11.5350   30.5780   -4.2040 O   0  0  0  0  0  0  0  0  0  0  0  0
   12.0140   28.2100   -4.4840 C   0  0  1  0  0  0  0  0  0  0  0  0
   11.6010   27.8470   -3.1020 C   0  0  2  0  0  0  0  0  0  0  0  0
   12.7080   27.8490   -1.8740 C   0  0  0  0  0  0  0  0  0  0  0  0
   11.9150   26.9440   -0.6600 C   0  0  0  0  0  0  0  0  0  0  0  0
   10.7340   26.1810   -1.3650 C   0  0  2  0  0  0  0  0  0  0  0  0
   10.7910   24.8370   -0.8740 C   0  0  2  0  0  0  0  0  0  0  0  0
    9.6530   23.9310   -1.4290 C   0  0  0  0  0  0  0  0  0  0  0  0
   10.5180   25.0470    0.6760 C   0  0  0  0  0  0  0  0  0  0  0  0
   10.4240   23.7300    1.4970 C   0  0  0  0  0  0  0  0  0  0  0  0
    9.9400   24.1830    2.9340 C   0  0  0  0  0  0  0  0  0  0  0  0
    9.9140   22.9860    3.9430 C   0  0  0  0  0  0  0  0  0  0  0  0
   11.3810   22.6550    4.3620 C   0  0  0  0  0  0  0  0  0  0  0  0
    9.2380   21.7410    3.3040 C   0  0  0  0  0  0  0  0  0  0  0  0
  2  1  1  6
  2  3  1  0
  3  4  1  0
  5  4  1  6
  5  6  1  0
  6  7  1  6
  6  8  1  0
  8  9  1  0
  9 10  1  0
 10 11  1  6
 10 12  1  0
 12 13  1  0
  6 13  1  0
 13 14  2  0
 14 15  1  0
 15 16  1  6
 17 15  1  1
  5 17  1  0
 17 18  1  0
  2 18  1  0
 18 19  1  1
 19 20  1  0
 21 20  1  1
  2 21  1  0
 21 22  1  0
 22 23  1  6
 22 24  1  0
 24 25  1  0
 25 26  1  0
 26 27  1  0
 27 28  1  0
 27 29  1  0
M  END
$$$$
