7VKZ_NOJ_A_801
     RDKit          3D

 11 11  0  0  0  0  0  0  0  0999 V2000
   47.0171   -3.5965   22.0759 C   0  0  0  0  0  0  0  0  0  0  0  0
   48.3381   -4.3607   22.1978 C   0  0  2  0  0  0  0  0  0  0  0  0
   49.4016   -3.5144   22.4231 O   0  0  0  0  0  0  0  0  0  0  0  0
   48.4736   -5.1512   20.9210 C   0  0  1  0  0  0  0  0  0  0  0  0
   49.7439   -5.6738   20.7378 O   0  0  0  0  0  0  0  0  0  0  0  0
   47.4172   -6.2411   21.0086 C   0  0  2  0  0  0  0  0  0  0  0  0
   47.5455   -7.1880   20.0268 O   0  0  0  0  0  0  0  0  0  0  0  0
   46.0882   -5.5164   20.9476 C   0  0  2  0  0  0  0  0  0  0  0  0
   45.9722   -4.5344   21.9495 N   0  0  0  0  0  0  0  0  0  0  0  0
   44.9514   -6.4987   21.0352 C   0  0  0  0  0  0  0  0  0  0  0  0
   45.0297   -7.2282   22.2036 O   0  0  0  0  0  0  0  0  0  0  0  0
  1  2  1  0
  2  3  1  6
  2  4  1  0
  4  5  1  1
  4  6  1  0
  6  7  1  6
  6  8  1  0
  1  9  1  6
  8  9  1  1
  8 10  1  0
 10 11  1  1
M  END
$$$$
