1GM8_SOX_B_1559
     RDKit          3D

 24 26  0  0  0  0  0  0  0  0999 V2000
   -0.2012   -4.9198   10.7772 O   0  0  0  0  0  0  0  0  0  0  0  0
   -0.2101   -5.3352   11.9595 C   0  0  0  0  0  0  0  0  0  0  0  0
   -0.8259   -5.0068   13.2144 N   0  0  0  0  0  0  0  0  0  0  0  0
   -1.3697   -4.2690   14.2701 C   0  0  1  0  0  0  0  0  0  0  0  0
   -2.2286   -3.1847   13.7226 C   0  0  0  0  0  0  0  0  0  0  0  0
   -2.9806   -3.4632   12.7738 O   0  0  0  0  0  0  0  0  0  0  0  0
   -2.2067   -1.8984   14.2388 O   0  0  0  0  0  0  0  0  0  0  0  0
   -2.1098   -5.1455   15.2325 C   0  0  2  0  0  0  0  0  0  0  0  0
   -3.4517   -5.6138   14.7367 C   0  0  0  0  0  0  0  0  0  0  0  0
   -2.1561   -4.5298   16.6098 C   0  0  0  0  0  0  0  0  0  0  0  0
   -0.9186   -6.5404   15.2122 S   0  0  1  0  0  0  0  0  0  0  0  0
   -0.8285   -6.4650   13.4339 C   0  0  2  0  0  0  0  0  0  0  0  0
    0.4603   -6.4643   12.7313 C   0  0  2  0  0  0  0  0  0  0  0  0
    1.6056   -5.8913   13.3956 N   0  0  0  0  0  0  0  0  0  0  0  0
    2.9005   -6.2171   12.9381 C   0  0  0  0  0  0  0  0  0  0  0  0
    3.0786   -6.4965   11.7131 O   0  0  0  0  0  0  0  0  0  0  0  0
    4.0438   -6.2352   13.8693 C   0  0  0  0  0  0  0  0  0  0  0  0
    4.9746   -7.2866   13.3744 C   0  0  0  0  0  0  0  0  0  0  0  0
    6.0255   -7.0316   12.5344 C   0  0  0  0  0  0  0  0  0  0  0  0
    6.8636   -8.0634   12.1055 C   0  0  0  0  0  0  0  0  0  0  0  0
    6.6444   -9.3787   12.5268 C   0  0  0  0  0  0  0  0  0  0  0  0
    5.5828   -9.6251   13.3731 C   0  0  0  0  0  0  0  0  0  0  0  0
    4.7461   -8.5927   13.8009 C   0  0  0  0  0  0  0  0  0  0  0  0
    0.5199   -6.0579   15.9305 O   0  0  0  0  0  0  0  0  0  0  0  0
  1  2  2  0
  2  3  1  0
  3  4  1  0
  4  5  1  6
  5  6  2  0
  5  7  1  0
  4  8  1  0
  8  9  1  6
  8 10  1  0
  8 11  1  0
 12  3  1  1
 11 12  1  0
  2 13  1  0
 12 13  1  0
 13 14  1  1
 14 15  1  0
 15 16  2  0
 15 17  1  0
 17 18  1  0
 18 19  2  0
 19 20  1  0
 20 21  2  0
 21 22  1  0
 18 23  1  0
 22 23  2  0
 11 24  1  1
M  END
$$$$
