1GM8_SOX_B_1559
     RDKit          3D

 24 26  0  0  0  0  0  0  0  0999 V2000
    2.9831   -2.3825    7.8112 O   0  0  0  0  0  0  0  0  0  0  0  0
    3.0099   -3.4845    7.2151 C   0  0  0  0  0  0  0  0  0  0  0  0
    2.2907   -4.7272    7.2107 N   0  0  0  0  0  0  0  0  0  0  0  0
    1.5677   -5.8408    7.6488 C   0  0  1  0  0  0  0  0  0  0  0  0
    0.5315   -5.4037    8.6228 C   0  0  0  0  0  0  0  0  0  0  0  0
    0.2897   -6.1492    9.5866 O   0  0  0  0  0  0  0  0  0  0  0  0
   -0.1541   -4.2075    8.4790 O   0  0  0  0  0  0  0  0  0  0  0  0
    0.9802   -6.6036    6.5020 C   0  0  2  0  0  0  0  0  0  0  0  0
   -0.2193   -5.9476    5.8723 C   0  0  0  0  0  0  0  0  0  0  0  0
    0.7558   -8.0514    6.8649 C   0  0  0  0  0  0  0  0  0  0  0  0
    2.4269   -6.4577    5.3835 S   0  0  1  0  0  0  0  0  0  0  0  0
    2.5717   -4.7224    5.7631 C   0  0  2  0  0  0  0  0  0  0  0  0
    3.8614   -4.1223    6.1251 C   0  0  2  0  0  0  0  0  0  0  0  0
    4.8408   -4.9462    6.7910 N   0  0  0  0  0  0  0  0  0  0  0  0
    6.1685   -4.9597    6.3122 C   0  0  0  0  0  0  0  0  0  0  0  0
    6.4953   -4.1939    5.3546 O   0  0  0  0  0  0  0  0  0  0  0  0
    7.1750   -5.8536    6.9142 C   0  0  0  0  0  0  0  0  0  0  0  0
    8.2620   -6.0036    5.9077 C   0  0  0  0  0  0  0  0  0  0  0  0
    9.3786   -5.2116    5.8770 C   0  0  0  0  0  0  0  0  0  0  0  0
   10.3638   -5.4034    4.9057 C   0  0  0  0  0  0  0  0  0  0  0  0
   10.2277   -6.4100    3.9444 C   0  0  0  0  0  0  0  0  0  0  0  0
    9.0988   -7.2025    3.9840 C   0  0  0  0  0  0  0  0  0  0  0  0
    8.1151   -7.0094    4.9556 C   0  0  0  0  0  0  0  0  0  0  0  0
    3.7092   -7.3421    6.0093 O   0  0  0  0  0  0  0  0  0  0  0  0
  1  2  2  0
  2  3  1  0
  3  4  1  0
  4  5  1  1
  5  6  2  0
  5  7  1  0
  4  8  1  0
  8  9  1  6
  8 10  1  0
  8 11  1  0
 12  3  1  1
 11 12  1  0
  2 13  1  0
 12 13  1  0
 13 14  1  1
 14 15  1  0
 15 16  2  0
 15 17  1  0
 17 18  1  0
 18 19  2  0
 19 20  1  0
 20 21  2  0
 21 22  1  0
 18 23  1  0
 22 23  2  0
 11 24  1  1
M  END
$$$$
