1N1M_A3M_B_955
     RDKit          3D

 12 12  0  0  0  0  0  0  0  0999 V2000
  119.6450   60.6110  103.0400 C   0  0  0  0  0  0  0  0  0  0  0  0
  120.6740   60.5200  101.8200 C   0  0  0  0  0  0  0  0  0  0  0  0
  120.9870   61.9210  101.4910 N   0  0  0  0  0  0  0  0  0  0  0  0
  119.7530   62.6540  101.8150 C   0  0  0  0  0  0  0  0  0  0  0  0
  119.4800   62.1790  103.2560 C   0  0  0  0  0  0  0  0  0  0  0  0
  121.5260   62.1000  100.1380 C   0  0  0  0  0  0  0  0  0  0  0  0
  122.7200   61.4520   99.5950 C   0  0  2  0  0  0  0  0  0  0  0  0
  124.0220   62.1690   99.6950 C   0  0  0  0  0  0  0  0  0  0  0  0
  124.4550   62.4420  101.0680 C   0  0  0  0  0  0  0  0  0  0  0  0
  120.8570   62.9560   99.2760 O   0  0  0  0  0  0  0  0  0  0  0  0
  122.5390   61.0840   98.1630 N   0  0  0  0  0  0  0  0  0  0  0  0
  125.2540   61.2330   99.0120 C   0  0  0  0  0  0  0  0  0  0  0  0
  1  2  1  0
  2  3  1  0
  3  4  1  0
  1  5  1  0
  4  5  1  0
  3  6  1  0
  6  7  1  0
  7  8  1  0
  8  9  1  0
  6 10  2  0
  7 11  1  6
  8 12  1  0
M  END
$$$$
1N1M_A3M_A_954
     RDKit          3D

 12 12  0  0  0  0  0  0  0  0999 V2000
   84.1890   77.2130   97.3480 C   0  0  0  0  0  0  0  0  0  0  0  0
   82.8540   76.3810   97.0320 C   0  0  0  0  0  0  0  0  0  0  0  0
   82.6620   75.5160   98.2090 N   0  0  0  0  0  0  0  0  0  0  0  0
   84.0340   75.2340   98.6920 C   0  0  0  0  0  0  0  0  0  0  0  0
   84.6320   76.6600   98.7760 C   0  0  0  0  0  0  0  0  0  0  0  0
   81.8000   74.3630   97.9530 C   0  0  0  0  0  0  0  0  0  0  0  0
   80.4200   74.3850   97.4480 C   0  0  2  0  0  0  0  0  0  0  0  0
   79.2960   74.2300   98.4320 C   0  0  0  0  0  0  0  0  0  0  0  0
   79.2210   75.2820   99.4580 C   0  0  0  0  0  0  0  0  0  0  0  0
   82.3220   73.1150   98.2010 O   0  0  0  0  0  0  0  0  0  0  0  0
   80.2150   73.3530   96.3790 N   0  0  0  0  0  0  0  0  0  0  0  0
   77.8050   74.2860   97.6340 C   0  0  0  0  0  0  0  0  0  0  0  0
  1  2  1  0
  2  3  1  0
  3  4  1  0
  1  5  1  0
  4  5  1  0
  3  6  1  0
  6  7  1  0
  7  8  1  0
  8  9  1  0
  6 10  2  0
  7 11  1  6
  8 12  1  0
M  END
$$$$
