7MAE_XUS_A_101
     RDKit          3D

 99102  0  0  0  0  0  0  0  0999 V2000
   -1.6005    1.4233   -1.7045 C   0  0  1  0  0  0  0  0  0  0  0  0
   -0.9653    0.1124   -1.1588 C   0  0  2  0  0  0  0  0  0  0  0  0
   -0.1314    1.0863    1.0790 C   0  0  0  0  0  0  0  0  0  0  0  0
    0.8668    2.0201    3.1563 C   0  0  1  0  0  0  0  0  0  0  0  0
    0.2649    1.1209    4.2161 C   0  0  0  0  0  0  0  0  0  0  0  0
    1.9941    2.1923    5.2373 C   0  0  1  0  0  0  0  0  0  0  0  0
    3.6046    0.6998    4.7182 C   0  0  0  0  0  0  0  0  0  0  0  0
   -2.0366   -0.8465   -0.5994 C   0  0  0  0  0  0  0  0  0  0  0  0
    4.6085    4.4946   -1.7495 C   0  0  0  0  0  0  0  0  0  0  0  0
    4.0181    3.4684   -0.9994 C   0  0  0  0  0  0  0  0  0  0  0  0
    3.0578    2.6346   -1.5793 C   0  0  0  0  0  0  0  0  0  0  0  0
    2.6714    2.8222   -2.9146 C   0  0  0  0  0  0  0  0  0  0  0  0
    3.2683    3.8444   -3.6665 C   0  0  0  0  0  0  0  0  0  0  0  0
    4.2302    4.6771   -3.0861 C   0  0  0  0  0  0  0  0  0  0  0  0
   -0.1733    3.7830   -4.1846 C   0  0  0  0  0  0  0  0  0  0  0  0
   -0.5826    2.5337   -2.0964 C   0  0  0  0  0  0  0  0  0  0  0  0
    2.2112    2.3849    3.7472 C   0  0  1  0  0  0  0  0  0  0  0  0
    3.3657    1.4499    3.4248 C   0  0  0  0  0  0  0  0  0  0  0  0
   -1.4311   -2.1656   -0.1925 C   0  0  0  0  0  0  0  0  0  0  0  0
   -1.1526   -3.1415   -1.1617 C   0  0  0  0  0  0  0  0  0  0  0  0
   -0.5724   -4.3581   -0.7922 C   0  0  0  0  0  0  0  0  0  0  0  0
   -0.2708   -4.6232    0.5478 C   0  0  0  0  0  0  0  0  0  0  0  0
   -0.5102   -3.6290    1.5147 C   0  0  0  0  0  0  0  0  0  0  0  0
   -1.0870   -2.4105    1.1456 C   0  0  0  0  0  0  0  0  0  0  0  0
   -3.8542    5.0334   -4.7004 C   0  0  0  0  0  0  0  0  0  0  0  0
   -1.4959    4.0709   -4.9338 C   0  0  2  0  0  0  0  0  0  0  0  0
   -2.6551    4.4213   -3.9755 C   0  0  0  0  0  0  0  0  0  0  0  0
   -1.8546    2.9242   -5.8934 C   0  0  0  0  0  0  0  0  0  0  0  0
    0.2417   -6.4726    2.1701 C   0  0  0  0  0  0  0  0  0  0  0  0
   -1.7990   -5.3499    4.6587 C   0  0  0  0  0  0  0  0  0  0  0  0
   -1.8759   -8.5559    0.7808 C   0  0  0  0  0  0  0  0  0  0  0  0
   -2.2942   -4.0092    5.1828 C   0  0  0  0  0  0  0  0  0  0  0  0
   -2.5584   -8.8666   -0.5408 C   0  0  0  0  0  0  0  0  0  0  0  0
   -0.1574    2.4537   -3.5184 N   0  0  0  0  0  0  0  0  0  0  0  0
    0.0732    0.3771   -0.1515 N   0  0  0  0  0  0  0  0  0  0  0  0
    5.5904    5.3478   -1.1570 N   0  0  0  0  0  0  0  0  0  0  0  0
    1.5220    0.4219   -3.0020 O   0  0  0  0  0  0  0  0  0  0  0  0
    1.7953    1.5879   -5.1084 O   0  0  0  0  0  0  0  0  0  0  0  0
   -2.4807    1.1461   -2.7669 O   0  0  0  0  0  0  0  0  0  0  0  0
   -1.2854    1.4602    1.4236 O   0  0  0  0  0  0  0  0  0  0  0  0
    0.9714    1.3677    1.8898 O   0  0  0  0  0  0  0  0  0  0  0  0
    0.7757    1.5121    5.4679 O   0  0  0  0  0  0  0  0  0  0  0  0
    3.0608    1.4474    5.7755 O   0  0  0  0  0  0  0  0  0  0  0  0
    0.2608   -5.8808    0.8724 O   0  0  0  0  0  0  0  0  0  0  0  0
   -2.2295   -5.5071    3.3270 O   0  0  0  0  0  0  0  0  0  0  0  0
   -2.3661   -7.3298    1.2692 O   0  0  0  0  0  0  0  0  0  0  0  0
   -1.4631   -8.0207    3.6539 O   0  0  0  0  0  0  0  0  0  0  0  0
   -1.4727   -6.8831    2.6547 P   0  0  0  0  0  5  0  0  0  0  0  0
    1.4567    1.7719   -3.6540 S   0  0  0  0  0  6  0  0  0  0  0  0
   -2.2227    1.8462   -0.8859 H   0  0  0  0  0  0  0  0  0  0  0  0
   -0.4954   -0.4153   -2.0133 H   0  0  0  0  0  0  0  0  0  0  0  0
    0.2566    2.9454    3.0594 H   0  0  0  0  0  0  0  0  0  0  0  0
    0.5342    0.0571    4.0295 H   0  0  0  0  0  0  0  0  0  0  0  0
   -0.8414    1.2126    4.2200 H   0  0  0  0  0  0  0  0  0  0  0  0
    1.9504    3.1798    5.7438 H   0  0  0  0  0  0  0  0  0  0  0  0
    3.1096   -0.2966    4.6812 H   0  0  0  0  0  0  0  0  0  0  0  0
    4.6922    0.5503    4.8890 H   0  0  0  0  0  0  0  0  0  0  0  0
   -2.8080   -1.0363   -1.3769 H   0  0  0  0  0  0  0  0  0  0  0  0
   -2.5675   -0.3854    0.2600 H   0  0  0  0  0  0  0  0  0  0  0  0
    4.3030    3.3136    0.0329 H   0  0  0  0  0  0  0  0  0  0  0  0
    2.6193    1.8443   -0.9848 H   0  0  0  0  0  0  0  0  0  0  0  0
    2.9949    3.9973   -4.7029 H   0  0  0  0  0  0  0  0  0  0  0  0
    4.6789    5.4640   -3.6795 H   0  0  0  0  0  0  0  0  0  0  0  0
    0.6178    3.8453   -4.9629 H   0  0  0  0  0  0  0  0  0  0  0  0
    0.0634    4.6056   -3.4718 H   0  0  0  0  0  0  0  0  0  0  0  0
   -1.0911    3.4989   -1.8911 H   0  0  0  0  0  0  0  0  0  0  0  0
    0.2831    2.5471   -1.4052 H   0  0  0  0  0  0  0  0  0  0  0  0
    2.4803    3.4374    3.5010 H   0  0  0  0  0  0  0  0  0  0  0  0
    4.2683    2.0492    3.1725 H   0  0  0  0  0  0  0  0  0  0  0  0
    3.1728    0.7428    2.5894 H   0  0  0  0  0  0  0  0  0  0  0  0
   -1.3847   -2.9600   -2.2035 H   0  0  0  0  0  0  0  0  0  0  0  0
   -0.3774   -5.1093   -1.5472 H   0  0  0  0  0  0  0  0  0  0  0  0
   -0.2487   -3.7830    2.5508 H   0  0  0  0  0  0  0  0  0  0  0  0
   -1.2629   -1.6574    1.9032 H   0  0  0  0  0  0  0  0  0  0  0  0
   -4.3305    4.2901   -5.3741 H   0  0  0  0  0  0  0  0  0  0  0  0
   -4.6118    5.3570   -3.9553 H   0  0  0  0  0  0  0  0  0  0  0  0
   -3.5406    5.9210   -5.2904 H   0  0  0  0  0  0  0  0  0  0  0  0
   -1.3038    4.9712   -5.5601 H   0  0  0  0  0  0  0  0  0  0  0  0
   -2.9966    3.5220   -3.4288 H   0  0  0  0  0  0  0  0  0  0  0  0
   -2.3004    5.1635   -3.2275 H   0  0  0  0  0  0  0  0  0  0  0  0
   -2.2244    2.0400   -5.3386 H   0  0  0  0  0  0  0  0  0  0  0  0
   -0.9635    2.6243   -6.4840 H   0  0  0  0  0  0  0  0  0  0  0  0
   -2.6380    3.2481   -6.6105 H   0  0  0  0  0  0  0  0  0  0  0  0
    0.7282   -5.8138    2.9147 H   0  0  0  0  0  0  0  0  0  0  0  0
    0.8274   -7.4132    2.1293 H   0  0  0  0  0  0  0  0  0  0  0  0
   -2.2265   -6.1537    5.2978 H   0  0  0  0  0  0  0  0  0  0  0  0
   -0.6887   -5.3572    4.7407 H   0  0  0  0  0  0  0  0  0  0  0  0
   -2.1055   -9.3766    1.4957 H   0  0  0  0  0  0  0  0  0  0  0  0
   -0.7800   -8.5149    0.5953 H   0  0  0  0  0  0  0  0  0  0  0  0
   -1.9639   -3.8722    6.2341 H   0  0  0  0  0  0  0  0  0  0  0  0
   -1.8786   -3.1830    4.5656 H   0  0  0  0  0  0  0  0  0  0  0  0
   -3.4056   -3.9718    5.1454 H   0  0  0  0  0  0  0  0  0  0  0  0
   -3.6571   -8.9464   -0.3916 H   0  0  0  0  0  0  0  0  0  0  0  0
   -2.3500   -8.0592   -1.2772 H   0  0  0  0  0  0  0  0  0  0  0  0
   -2.1772   -9.8275   -0.9467 H   0  0  0  0  0  0  0  0  0  0  0  0
    1.0396    0.0337   -0.3494 H   0  0  0  0  0  0  0  0  0  0  0  0
    6.0282    6.1210   -1.7053 H   0  0  0  0  0  0  0  0  0  0  0  0
    5.8859    5.2149   -0.1651 H   0  0  0  0  0  0  0  0  0  0  0  0
   -1.9854    0.6128   -3.4422 H   0  0  0  0  0  0  0  0  0  0  0  0
  1  2  1  0
  4  5  1  0
  2  8  1  0
  9 10  2  0
 10 11  1  0
 11 12  2  0
 12 13  1  0
  9 14  1  0
 13 14  2  0
  1 16  1  0
  4 17  1  0
  6 17  1  0
  7 18  1  0
 17 18  1  0
  8 19  1  0
 19 20  2  0
 20 21  1  0
 21 22  2  0
 22 23  1  0
 19 24  1  0
 23 24  2  0
 15 26  1  0
 26 27  1  0
 25 27  1  0
 26 28  1  0
 30 32  1  0
 31 33  1  0
 15 34  1  0
 16 34  1  0
  2 35  1  0
  3 35  1  0
  9 36  1  0
  1 39  1  0
  3 40  2  0
  3 41  1  0
  4 41  1  0
  5 42  1  0
  6 42  1  0
  7 43  1  0
  6 43  1  0
 22 44  1  0
 29 44  1  0
 30 45  1  0
 31 46  1  0
 29 48  1  0
 47 48  2  0
 45 48  1  0
 46 48  1  0
 12 49  1  0
 34 49  1  0
 37 49  2  0
 38 49  2  0
  1 50  1  1
  2 51  1  6
  4 52  1  6
  5 53  1  0
  5 54  1  0
  6 55  1  1
  7 56  1  0
  7 57  1  0
  8 58  1  0
  8 59  1  0
 10 60  1  0
 11 61  1  0
 13 62  1  0
 14 63  1  0
 15 64  1  0
 15 65  1  0
 16 66  1  0
 16 67  1  0
 17 68  1  1
 18 69  1  0
 18 70  1  0
 20 71  1  0
 21 72  1  0
 23 73  1  0
 24 74  1  0
 25 75  1  0
 25 76  1  0
 25 77  1  0
 26 78  1  6
 27 79  1  0
 27 80  1  0
 28 81  1  0
 28 82  1  0
 28 83  1  0
 29 84  1  0
 29 85  1  0
 30 86  1  0
 30 87  1  0
 31 88  1  0
 31 89  1  0
 32 90  1  0
 32 91  1  0
 32 92  1  0
 33 93  1  0
 33 94  1  0
 33 95  1  0
 35 96  1  0
 36 97  1  0
 36 98  1  0
 39 99  1  0
M  END
