
     RDKit          3D

  8  8  0  0  0  0  0  0  0  0999 V2000
  -40.3327   24.0336   -7.1780 C   0  0  0  0  0  0  0  0  0  0  0  0
  -40.8879   24.3916   -8.5253 C   0  0  0  0  0  0  0  0  0  0  0  0
  -42.0541   23.7750   -8.9975 C   0  0  0  0  0  0  0  0  0  0  0  0
  -42.5891   24.1302  -10.2380 C   0  0  0  0  0  0  0  0  0  0  0  0
  -41.9651   25.1111  -11.0054 C   0  0  0  0  0  0  0  0  0  0  0  0
  -42.6245   25.5498  -12.5331 Cl  0  0  0  0  0  0  0  0  0  0  0  0
  -40.8132   25.7424  -10.5416 C   0  0  0  0  0  0  0  0  0  0  0  0
  -40.2787   25.3867   -9.3011 C   0  0  0  0  0  0  0  0  0  0  0  0
  1  2  1  0
  2  3  4  0
  3  4  4  0
  4  5  4  0
  5  6  1  0
  5  7  4  0
  7  8  4  0
  2  8  4  0
M  END
