
     RDKit          3D

 45 49  0  0  0  0  0  0  0  0999 V2000
   -3.1418   56.6415   20.4687 O   0  0  0  0  0  0  0  0  0  0  0  0
   -4.1546   55.9626   20.5835 C   0  0  0  0  0  0  0  0  0  0  0  0
   -5.2810   56.4742   21.1676 N   0  0  0  0  0  0  0  0  0  0  0  0
   -4.2054   54.5474   20.1309 C   0  0  0  0  0  0  0  0  0  0  0  0
   -5.3106   54.1324   19.3683 C   0  0  0  0  0  0  0  0  0  0  0  0
   -3.2008   53.6342   20.4652 C   0  0  0  0  0  0  0  0  0  0  0  0
   -3.2910   52.3211   20.0132 C   0  0  0  0  0  0  0  0  0  0  0  0
   -4.3873   51.9219   19.2445 C   0  0  0  0  0  0  0  0  0  0  0  0
   -5.4329   52.8068   18.9350 C   0  0  0  0  0  0  0  0  0  0  0  0
   -6.5297   52.7323   16.7103 C   0  0  2  0  0  0  0  0  0  0  0  0
   -7.1585   54.0292   16.7047 O   0  0  0  0  0  0  0  0  0  0  0  0
   -7.4356   51.7925   15.8999 C   0  0  2  0  0  0  0  0  0  0  0  0
   -7.0926   51.8182   14.5018 O   0  0  0  0  0  0  0  0  0  0  0  0
   -8.8027   52.4193   16.1079 C   0  0  2  0  0  0  0  0  0  0  0  0
   -9.7010   52.0122   15.0777 O   0  0  0  0  0  0  0  0  0  0  0  0
   -8.4505   53.9053   16.0757 C   0  0  1  0  0  0  0  0  0  0  0  0
   -9.4465   54.7953   16.8135 C   0  0  0  0  0  0  0  0  0  0  0  0
   -8.7864   55.6991   17.6799 O   0  0  0  0  0  0  0  0  0  0  0  0
   -8.9937   55.4760   19.2523 P   0  0  2  0  0  5  0  0  0  0  0  0
   -8.1101   56.6480   19.9015 O   0  0  0  0  0  0  0  0  0  0  0  0
   -8.5856   54.1458   19.7919 O   0  0  0  0  0  0  0  0  0  0  0  0
  -10.4765   55.9360   19.5842 O   0  0  0  0  0  0  0  0  0  0  0  0
  -10.8724   56.4213   21.0406 P   0  0  2  0  0  5  0  0  0  0  0  0
   -9.8465   55.6102   21.9710 O   0  0  0  0  0  0  0  0  0  0  0  0
  -12.2851   56.2177   21.4675 O   0  0  0  0  0  0  0  0  0  0  0  0
  -10.2948   57.9140   21.1531 O   0  0  0  0  0  0  0  0  0  0  0  0
  -10.4681   58.7463   20.0190 C   0  0  0  0  0  0  0  0  0  0  0  0
  -10.4193   60.2092   20.4422 C   0  0  2  0  0  0  0  0  0  0  0  0
   -9.2895   60.4839   21.4306 C   0  0  1  0  0  0  0  0  0  0  0  0
   -8.0403   60.7624   20.7977 O   0  0  0  0  0  0  0  0  0  0  0  0
   -9.7986   61.7066   22.1756 C   0  0  1  0  0  0  0  0  0  0  0  0
   -9.3746   62.8971   21.4848 O   0  0  0  0  0  0  0  0  0  0  0  0
  -11.3226   61.5662   22.0965 C   0  0  1  0  0  0  0  0  0  0  0  0
  -11.6445   60.5774   21.0928 O   0  0  0  0  0  0  0  0  0  0  0  0
  -11.9698   61.1889   23.3352 N   0  0  0  0  0  0  0  0  0  0  0  0
  -12.7351   61.9756   24.1512 C   0  0  0  0  0  0  0  0  0  0  0  0
  -13.0936   61.1495   25.2064 C   0  0  0  0  0  0  0  0  0  0  0  0
  -12.5829   59.8795   25.0341 N   0  0  0  0  0  0  0  0  0  0  0  0
  -11.9067   59.9425   23.9063 C   0  0  0  0  0  0  0  0  0  0  0  0
  -13.0786   63.2627   23.9793 N   0  0  0  0  0  0  0  0  0  0  0  0
  -13.8500   63.6952   24.9983 C   0  0  0  0  0  0  0  0  0  0  0  0
  -14.2778   63.0080   26.0789 N   0  0  0  0  0  0  0  0  0  0  0  0
  -13.8938   61.7182   26.2118 C   0  0  0  0  0  0  0  0  0  0  0  0
  -14.3322   61.0132   27.3252 N   0  0  0  0  0  0  0  0  0  0  0  0
   -6.4587   52.3403   18.1074 N   0  0  0  0  0  0  0  0  0  0  0  0
  1  2  2  0
  2  3  1  0
  2  4  1  0
  4  5  4  0
  4  6  4  0
  6  7  4  0
  7  8  4  0
  8  9  4  0
  5  9  4  0
 10 11  1  0
 10 12  1  0
 12 13  1  6
 12 14  1  0
 14 15  1  6
 11 16  1  0
 14 16  1  0
 16 17  1  1
 17 18  1  0
 18 19  1  0
 19 20  1  1
 19 21  2  0
 19 22  1  0
 22 23  1  0
 23 24  1  1
 23 25  2  0
 23 26  1  0
 26 27  1  0
 28 27  1  1
 28 29  1  0
 29 30  1  6
 29 31  1  0
 31 32  1  6
 31 33  1  0
 28 34  1  0
 33 34  1  0
 33 35  1  1
 35 36  4  0
 36 37  4  0
 37 38  4  0
 35 39  4  0
 38 39  4  0
 36 40  4  0
 40 41  4  0
 41 42  4  0
 37 43  4  0
 42 43  4  0
 43 44  1  0
 10 45  1  1
  9 45  1  0
M  END
