8ACL_LQL_A_401
     RDKit          3D

 31 34  0  0  0  0  0  0  0  0999 V2000
   13.4183   -2.5753   23.8952 N   0  0  0  0  0  0  0  0  0  0  0  0
   17.4993   -1.0325   22.1946 N   0  0  0  0  0  0  0  0  0  0  0  0
    4.8643   -2.3378   26.3154 C   0  0  0  0  0  0  0  0  0  0  0  0
    5.4572   -1.0606   26.1274 C   0  0  0  0  0  0  0  0  0  0  0  0
   11.0986   -2.2525   24.5104 C   0  0  1  0  0  0  0  0  0  0  0  0
   12.1497   -3.2548   24.0274 C   0  0  0  0  0  0  0  0  0  0  0  0
   13.8513   -1.6315   24.9056 C   0  0  0  0  0  0  0  0  0  0  0  0
   10.8592   -0.3663   26.1257 C   0  0  0  0  0  0  0  0  0  0  0  0
    9.3897    1.8212   27.1610 C   0  0  0  0  0  0  0  0  0  0  0  0
   11.2568    0.3084   27.2566 C   0  0  0  0  0  0  0  0  0  0  0  0
   15.7238   -2.4891   22.8684 C   0  0  0  0  0  0  0  0  0  0  0  0
   17.9541   -2.8428   23.6191 C   0  0  0  0  0  0  0  0  0  0  0  0
   16.6318   -3.2179   23.6018 C   0  0  0  0  0  0  0  0  0  0  0  0
    9.4577   -3.5361   26.0045 N   0  0  0  0  0  0  0  0  0  0  0  0
    9.8267   -2.9394   24.7864 C   0  0  0  0  0  0  0  0  0  0  0  0
    8.9912   -2.9900   23.8160 O   0  0  0  0  0  0  0  0  0  0  0  0
    8.1679   -4.1354   26.2697 C   0  0  0  0  0  0  0  0  0  0  0  0
    9.6902    0.0936   25.5218 C   0  0  0  0  0  0  0  0  0  0  0  0
    8.9742    1.1662   26.0337 C   0  0  0  0  0  0  0  0  0  0  0  0
   10.5379    1.3893   27.7754 C   0  0  0  0  0  0  0  0  0  0  0  0
   14.3045   -2.7979   22.7903 C   0  0  0  0  0  0  0  0  0  0  0  0
   16.2024   -1.3801   22.1624 C   0  0  0  0  0  0  0  0  0  0  0  0
   18.4208   -1.7284   22.9074 C   0  0  0  0  0  0  0  0  0  0  0  0
    7.0461   -3.1758   26.2430 C   0  0  0  0  0  0  0  0  0  0  0  0
    5.7254   -3.3601   26.3640 C   0  0  0  0  0  0  0  0  0  0  0  0
   12.9234   -1.8284   26.1215 C   0  0  0  0  0  0  0  0  0  0  0  0
   11.6001   -1.4575   25.6023 N   0  0  0  0  0  0  0  0  0  0  0  0
   13.8918   -3.2756   21.6866 O   0  0  0  0  0  0  0  0  0  0  0  0
    7.2467   -1.3728   26.0267 S   0  0  0  0  0  0  0  0  0  0  0  0
    7.4946    1.7264   25.2421 Cl  0  0  0  0  0  0  0  0  0  0  0  0
    8.4505    3.1667   27.7671 Cl  0  0  0  0  0  0  0  0  0  0  0  0
  3  4  2  0
  1  6  1  0
  5  6  1  0
  1  7  1  0
  8 10  1  0
 12 13  1  0
 11 13  2  0
  5 15  1  1
 14 15  1  0
 15 16  2  0
 14 17  1  0
  8 18  2  0
 18 19  1  0
  9 19  2  0
 10 20  2  0
  9 20  1  0
 11 21  1  0
  1 21  1  0
  2 22  2  0
 11 22  1  0
 12 23  2  0
  2 23  1  0
 17 24  1  0
 24 25  2  0
  3 25  1  0
  7 26  1  0
  5 27  1  0
 26 27  1  0
  8 27  1  0
 21 28  2  0
 24 29  1  0
  4 29  1  0
 19 30  1  0
  9 31  1  0
M  END
$$$$
