
     RDKit          3D

 49 51  0  0  0  0  0  0  0  0999 V2000
   65.4882   -2.5234    2.7682 N   0  0  0  0  0  0  0  0  0  0  0  0
   66.7003   -2.5672    3.4455 C   0  0  0  0  0  0  0  0  0  0  0  0
   66.8771   -1.6304    4.4277 N   0  0  0  0  0  0  0  0  0  0  0  0
   65.9391   -0.7444    4.8663 C   0  0  0  0  0  0  0  0  0  0  0  0
   64.6997   -0.6907    4.0733 C   0  0  0  0  0  0  0  0  0  0  0  0
   64.5362   -1.5626    3.0738 C   0  0  0  0  0  0  0  0  0  0  0  0
   67.5696   -3.4141    3.2329 O   0  0  0  0  0  0  0  0  0  0  0  0
   66.1038   -0.0363    5.8566 O   0  0  0  0  0  0  0  0  0  0  0  0
   65.2984   -3.4776    1.6675 C   0  0  1  0  0  0  0  0  0  0  0  0
   64.2369   -4.5669    1.9601 C   0  0  2  0  0  0  0  0  0  0  0  0
   64.7197   -5.7664    2.5552 O   0  0  0  0  0  0  0  0  0  0  0  0
   63.7011   -4.8374    0.5657 C   0  0  1  0  0  0  0  0  0  0  0  0
   63.6767   -3.4406   -0.0335 C   0  0  2  0  0  0  0  0  0  0  0  0
   64.8669   -2.7921    0.4637 O   0  0  0  0  0  0  0  0  0  0  0  0
   64.6504   -5.6354   -0.1665 O   0  0  0  0  0  0  0  0  0  0  0  0
   62.4464   -2.6247    0.3944 C   0  0  0  0  0  0  0  0  0  0  0  0
   62.6151   -1.2655    0.0036 O   0  0  0  0  0  0  0  0  0  0  0  0
   61.7374   -0.1530    0.7581 P   0  0  1  0  0  5  0  0  0  0  0  0
   61.3225   -0.5399    2.1329 O   0  0  0  0  0  0  0  0  0  0  0  0
   62.6968    1.1357    0.7655 O   0  0  0  0  0  0  0  0  0  0  0  0
   60.5563    0.2399   -0.2246 O   0  0  0  0  0  0  0  0  0  0  0  0
   60.2293    1.6341   -0.8780 P   0  0  2  0  0  5  0  0  0  0  0  0
   61.2150    2.2051   -1.8535 O   0  0  0  0  0  0  0  0  0  0  0  0
   60.0215    2.6312    0.3681 O   0  0  0  0  0  0  0  0  0  0  0  0
   58.7606    1.4862   -1.5075 O   0  0  0  0  0  0  0  0  0  0  0  0
   57.6829    1.1464   -0.6590 C   0  0  2  0  0  0  0  0  0  0  0  0
   56.8087    0.0307   -1.2987 C   0  0  2  0  0  0  0  0  0  0  0  0
   57.4976   -1.2553   -1.4517 N   0  0  0  0  0  0  0  0  0  0  0  0
   58.0032   -1.9002   -0.3377 C   0  0  0  0  0  0  0  0  0  0  0  0
   57.5184   -1.7885    0.7868 O   0  0  0  0  0  0  0  0  0  0  0  0
   59.1870   -2.7776   -0.6237 C   0  0  0  0  0  0  0  0  0  0  0  0
   56.2632    0.5478   -2.6503 C   0  0  1  0  0  0  0  0  0  0  0  0
   55.3011   -0.3932   -3.1769 O   0  0  0  0  0  0  0  0  0  0  0  0
   55.5067    1.8654   -2.4143 C   0  0  2  0  0  0  0  0  0  0  0  0
   55.1027    2.4219   -3.6706 O   0  0  0  0  0  0  0  0  0  0  0  0
   56.3463    2.8780   -1.6277 C   0  0  2  0  0  0  0  0  0  0  0  0
   56.8753    2.3066   -0.4230 O   0  0  0  0  0  0  0  0  0  0  0  0
   55.4808    4.0765   -1.2042 C   0  0  0  0  0  0  0  0  0  0  0  0
   54.4823    3.6893   -0.2569 O   0  0  0  0  0  0  0  0  0  0  0  0
   55.8021   -1.2648   -4.1996 C   0  0  1  0  0  0  0  0  0  0  0  0
   55.8753   -2.7343   -3.7445 C   0  0  0  0  0  0  0  0  0  0  0  0
   56.4700   -3.6013   -4.4065 O   0  0  0  0  0  0  0  0  0  0  0  0
   54.8122   -1.1737   -5.3581 C   0  0  0  0  0  0  0  0  0  0  0  0
   55.2545   -3.0008   -2.5396 N   0  0  0  0  0  0  0  0  0  0  0  0
   55.7639   -4.0735   -1.6832 C   0  0  2  0  0  0  0  0  0  0  0  0
   55.2944   -5.4339   -2.2095 C   0  0  0  0  0  0  0  0  0  0  0  0
   54.4180   -5.6099   -3.0428 O   0  0  0  0  0  0  0  0  0  0  0  0
   55.9404   -6.4520   -1.6040 O   0  0  0  0  0  0  0  0  0  0  0  0
   55.2753   -3.8972   -0.2529 C   0  0  0  0  0  0  0  0  0  0  0  0
  1  2  4  0
  2  3  4  0
  3  4  4  0
  4  5  4  0
  1  6  4  0
  5  6  4  0
  2  7  2  0
  4  8  2  0
  9  1  1  1
  9 10  1  0
 10 11  1  6
 10 12  1  0
 12 13  1  0
  9 14  1  0
 13 14  1  0
 12 15  1  6
 13 16  1  1
 16 17  1  0
 17 18  1  0
 18 19  2  0
 18 20  1  1
 18 21  1  0
 21 22  1  0
 22 23  2  0
 22 24  1  1
 22 25  1  0
 26 25  1  6
 26 27  1  0
 27 28  1  6
 28 29  1  0
 29 30  2  0
 29 31  1  0
 27 32  1  0
 32 33  1  1
 32 34  1  0
 34 35  1  6
 34 36  1  0
 26 37  1  0
 36 37  1  0
 36 38  1  1
 38 39  1  0
 33 40  1  0
 40 41  1  0
 41 42  2  0
 40 43  1  6
 41 44  1  0
 44 45  1  0
 45 46  1  0
 46 47  2  0
 46 48  1  0
 45 49  1  1
M  END
