8AEM_LVF_A_407
     RDKit          3D

 20 21  0  0  0  0  0  0  0  0999 V2000
 -121.6107 -182.5738  310.6577 C   0  0  0  0  0  0  0  0  0  0  0  0
 -122.6109 -182.5783  309.6898 C   0  0  0  0  0  0  0  0  0  0  0  0
 -122.6011 -183.3363  308.3990 C   0  0  2  0  0  0  0  0  0  0  0  0
 -122.8262 -182.4187  307.2788 C   0  0  0  0  0  0  0  0  0  0  0  0
 -123.5630 -181.6803  310.1320 C   0  0  0  0  0  0  0  0  0  0  0  0
 -124.7649 -181.2573  309.5645 C   0  0  0  0  0  0  0  0  0  0  0  0
 -121.9308 -181.7272  311.6630 N   0  0  0  0  0  0  0  0  0  0  0  0
 -123.8475 -180.2448  312.0527 C   0  0  0  0  0  0  0  0  0  0  0  0
 -125.5248 -180.3047  310.2697 C   0  0  0  0  0  0  0  0  0  0  0  0
 -123.1180 -181.1895  311.3326 C   0  0  0  0  0  0  0  0  0  0  0  0
 -123.0047 -181.6940  306.3944 N   0  0  0  0  0  0  0  0  0  0  0  0
 -127.0453 -179.7376  309.6049 Cl  0  0  0  0  0  0  0  0  0  0  0  0
 -125.0673 -179.8017  311.5094 C   0  0  0  0  0  0  0  0  0  0  0  0
 -120.6959 -183.1512  310.6229 H   0  0  0  0  0  0  0  0  0  0  0  0
 -123.3982 -184.1088  308.4070 H   0  0  0  0  0  0  0  0  0  0  0  0
 -121.6224 -183.8427  308.2636 H   0  0  0  0  0  0  0  0  0  0  0  0
 -125.1023 -181.6471  308.6127 H   0  0  0  0  0  0  0  0  0  0  0  0
 -121.3620 -181.5255  312.5152 H   0  0  0  0  0  0  0  0  0  0  0  0
 -123.4869 -179.8613  312.9984 H   0  0  0  0  0  0  0  0  0  0  0  0
 -125.6551 -179.0684  312.0465 H   0  0  0  0  0  0  0  0  0  0  0  0
  1  2  2  0
  2  3  1  0
  3  4  1  0
  2  5  1  0
  5  6  1  0
  1  7  1  0
  6  9  2  0
  7 10  1  0
  5 10  2  0
  8 10  1  0
  4 11  3  0
  9 12  1  0
  9 13  1  0
  8 13  2  0
  1 14  1  0
  3 15  1  1
  3 16  1  0
  6 17  1  0
  7 18  1  0
  8 19  1  0
 13 20  1  0
M  END
