1W1P_GIO_B_1501
     RDKit          3D

 11 12  0  0  0  0  0  0  0  0999 V2000
   20.0163   35.4481  116.7894 O   0  0  0  0  0  0  0  0  0  0  0  0
   20.1173   36.2215  117.7757 C   0  0  0  0  0  0  0  0  0  0  0  0
   19.4275   35.8602  119.0152 C   0  0  2  0  0  0  0  0  0  0  0  0
   17.9737   35.4687  118.7787 C   0  0  0  0  0  0  0  0  0  0  0  0
   17.4419   35.4929  120.1971 C   0  0  0  0  0  0  0  0  0  0  0  0
   18.1120   36.7160  120.7994 C   0  0  0  0  0  0  0  0  0  0  0  0
   19.2768   36.9568  119.9468 N   0  0  0  0  0  0  0  0  0  0  0  0
   20.1897   38.0196  119.9151 C   0  0  0  0  0  0  0  0  0  0  0  0
   20.3865   38.7021  120.9592 O   0  0  0  0  0  0  0  0  0  0  0  0
   20.9354   38.3783  118.7084 C   0  0  0  0  0  0  0  0  0  0  0  0
   20.8782   37.3974  117.6678 N   0  0  0  0  0  0  0  0  0  0  0  0
  1  2  2  0
  2  3  1  0
  3  4  1  6
  4  5  1  0
  5  6  1  0
  3  7  1  0
  6  7  1  0
  7  8  1  0
  8  9  2  0
  8 10  1  0
  2 11  1  0
 10 11  1  0
M  END
$$$$
