1W1P_GIO_B_1501
     RDKit          3D

 11 12  0  0  0  0  0  0  0  0999 V2000
   42.5990   77.4013   52.9129 O   0  0  0  0  0  0  0  0  0  0  0  0
   43.6050   76.7174   52.5944 C   0  0  0  0  0  0  0  0  0  0  0  0
   44.9287   77.3302   52.7174 C   0  0  2  0  0  0  0  0  0  0  0  0
   44.9898   78.7145   52.0827 C   0  0  0  0  0  0  0  0  0  0  0  0
   46.4874   78.9405   52.0452 C   0  0  0  0  0  0  0  0  0  0  0  0
   47.0349   77.5807   51.6462 C   0  0  0  0  0  0  0  0  0  0  0  0
   45.9684   76.6383   51.9870 N   0  0  0  0  0  0  0  0  0  0  0  0
   45.8314   75.2691   51.7222 C   0  0  0  0  0  0  0  0  0  0  0  0
   46.8634   74.5636   51.5438 O   0  0  0  0  0  0  0  0  0  0  0  0
   44.5268   74.6116   51.6422 C   0  0  0  0  0  0  0  0  0  0  0  0
   43.4389   75.4006   52.1344 N   0  0  0  0  0  0  0  0  0  0  0  0
  1  2  2  0
  2  3  1  0
  3  4  1  6
  4  5  1  0
  5  6  1  0
  3  7  1  0
  6  7  1  0
  7  8  1  0
  8  9  2  0
  8 10  1  0
  2 11  1  0
 10 11  1  0
M  END
$$$$
