1W1P_GIO_B_1501
     RDKit          3D

 11 12  0  0  0  0  0  0  0  0999 V2000
   36.6859   65.5055   84.2756 O   0  0  0  0  0  0  0  0  0  0  0  0
   37.6967   64.8334   83.9471 C   0  0  0  0  0  0  0  0  0  0  0  0
   38.3996   64.0821   84.9884 C   0  0  2  0  0  0  0  0  0  0  0  0
   38.6880   64.9292   86.2222 C   0  0  0  0  0  0  0  0  0  0  0  0
   39.6837   64.0443   86.9440 C   0  0  0  0  0  0  0  0  0  0  0  0
   40.5500   63.5049   85.8186 C   0  0  0  0  0  0  0  0  0  0  0  0
   39.7333   63.6641   84.6146 N   0  0  0  0  0  0  0  0  0  0  0  0
   40.0450   63.4808   83.2608 C   0  0  0  0  0  0  0  0  0  0  0  0
   40.9748   62.6896   82.9380 O   0  0  0  0  0  0  0  0  0  0  0  0
   39.3305   64.1756   82.1896 C   0  0  0  0  0  0  0  0  0  0  0  0
   38.1225   64.8187   82.6086 N   0  0  0  0  0  0  0  0  0  0  0  0
  1  2  2  0
  2  3  1  0
  3  4  1  1
  4  5  1  0
  5  6  1  0
  3  7  1  0
  6  7  1  0
  7  8  1  0
  8  9  2  0
  8 10  1  0
  2 11  1  0
 10 11  1  0
M  END
$$$$
