1W1P_GIO_B_1501
     RDKit          3D

 11 12  0  0  0  0  0  0  0  0999 V2000
   54.7363   77.5689   44.7176 O   0  0  0  0  0  0  0  0  0  0  0  0
   54.1328   77.1491   45.7377 C   0  0  0  0  0  0  0  0  0  0  0  0
   52.9306   77.8604   46.1754 C   0  0  2  0  0  0  0  0  0  0  0  0
   53.1422   79.3678   46.2515 C   0  0  0  0  0  0  0  0  0  0  0  0
   51.9133   79.7849   47.0332 C   0  0  0  0  0  0  0  0  0  0  0  0
   51.7793   78.6924   48.0803 C   0  0  0  0  0  0  0  0  0  0  0  0
   52.5314   77.5622   47.5336 N   0  0  0  0  0  0  0  0  0  0  0  0
   52.8867   76.3321   48.1031 C   0  0  0  0  0  0  0  0  0  0  0  0
   52.1845   75.8526   49.0368 O   0  0  0  0  0  0  0  0  0  0  0  0
   54.0521   75.5680   47.6572 C   0  0  0  0  0  0  0  0  0  0  0  0
   54.6183   76.0239   46.4244 N   0  0  0  0  0  0  0  0  0  0  0  0
  1  2  2  0
  2  3  1  0
  3  4  1  1
  4  5  1  0
  5  6  1  0
  3  7  1  0
  6  7  1  0
  7  8  1  0
  8  9  2  0
  8 10  1  0
  2 11  1  0
 10 11  1  0
M  END
$$$$
