1W1P_GIO_B_1501
     RDKit          3D

 11 12  0  0  0  0  0  0  0  0999 V2000
   44.8790   74.7662   52.2836 O   0  0  0  0  0  0  0  0  0  0  0  0
   43.6511   74.8715   52.0338 C   0  0  0  0  0  0  0  0  0  0  0  0
   42.8150   75.6291   52.9664 C   0  0  2  0  0  0  0  0  0  0  0  0
   43.0409   75.2170   54.4162 C   0  0  0  0  0  0  0  0  0  0  0  0
   41.8506   75.8747   55.0840 C   0  0  0  0  0  0  0  0  0  0  0  0
   40.7229   75.6419   54.0930 C   0  0  0  0  0  0  0  0  0  0  0  0
   41.3970   75.3823   52.8202 N   0  0  0  0  0  0  0  0  0  0  0  0
   40.8938   74.9615   51.5818 C   0  0  0  0  0  0  0  0  0  0  0  0
   39.6899   75.2011   51.2855 O   0  0  0  0  0  0  0  0  0  0  0  0
   41.7136   74.2467   50.6032 C   0  0  0  0  0  0  0  0  0  0  0  0
   43.1171   74.2688   50.8827 N   0  0  0  0  0  0  0  0  0  0  0  0
  1  2  2  0
  2  3  1  0
  3  4  1  1
  4  5  1  0
  5  6  1  0
  3  7  1  0
  6  7  1  0
  7  8  1  0
  8  9  2  0
  8 10  1  0
  2 11  1  0
 10 11  1  0
M  END
$$$$
