
     RDKit          3D

 26 28  0  0  0  0  0  0  0  0999 V2000
   31.4669    1.6237   14.2868 N   0  0  0  0  0  0  0  0  0  0  0  0
   32.8816    0.2079   17.9702 C   0  0  2  0  0  0  0  0  0  0  0  0
   32.1267    1.5367   17.8047 C   0  0  0  0  0  0  0  0  0  0  0  0
   32.7724    2.6485   18.6237 C   0  0  0  0  0  0  0  0  0  0  0  0
   30.3602    1.6162   13.4708 C   0  0  0  0  0  0  0  0  0  0  0  0
   30.5371    2.3653   12.2440 C   0  0  0  0  0  0  0  0  0  0  0  0
   31.1090    3.7682   10.5901 C   0  0  0  0  0  0  0  0  0  0  0  0
   29.4563    3.6934    7.8691 C   0  0  0  0  0  0  0  0  0  0  0  0
   28.1834    2.2819    6.3783 C   0  0  0  0  0  0  0  0  0  0  0  0
   28.8536    1.4624    8.5513 C   0  0  0  0  0  0  0  0  0  0  0  0
   31.4633    1.0136   15.5839 C   0  0  2  0  0  0  0  0  0  0  0  0
   32.1301    1.9468   16.4337 O   0  0  0  0  0  0  0  0  0  0  0  0
   32.2930   -0.8528   17.0352 C   0  0  0  0  0  0  0  0  0  0  0  0
   33.0997   -2.0420   17.0665 O   0  0  0  0  0  0  0  0  0  0  0  0
   32.2102   -0.3397   15.5956 C   0  0  1  0  0  0  0  0  0  0  0  0
   31.5681   -1.3331   14.7903 O   0  0  0  0  0  0  0  0  0  0  0  0
   32.8344   -0.2852   19.3137 O   0  0  0  0  0  0  0  0  0  0  0  0
   29.3160    1.0432   13.7687 O   0  0  0  0  0  0  0  0  0  0  0  0
   29.8101    2.0229   11.1332 O   0  0  0  0  0  0  0  0  0  0  0  0
   30.1606    2.8778   10.1242 C   0  0  0  0  0  0  0  0  0  0  0  0
   31.3511    3.4387   11.9456 C   0  0  0  0  0  0  0  0  0  0  0  0
   29.4888    2.6787    8.8408 C   0  0  0  0  0  0  0  0  0  0  0  0
   28.2050    1.2649    7.3300 C   0  0  0  0  0  0  0  0  0  0  0  0
   28.8110    3.5069    6.6349 C   0  0  0  0  0  0  0  0  0  0  0  0
   28.7849    4.6075    5.6058 C   0  0  0  0  0  0  0  0  0  0  0  0
   27.6910    5.5384    5.8527 N   0  0  0  0  0  0  0  0  0  0  0  0
  2  3  1  0
  3  4  1  0
  1  5  1  0
  5  6  1  0
 11  1  1  6
  3 12  1  0
 11 12  1  0
  2 13  1  0
 13 14  1  0
 13 15  1  0
 11 15  1  0
 15 16  1  6
  2 17  1  1
  5 18  2  0
  6 19  4  0
 19 20  4  0
  7 20  4  0
  6 21  4  0
  7 21  4  0
 20 22  1  0
 10 22  4  0
  8 22  4  0
 10 23  4  0
  9 23  4  0
  8 24  4  0
  9 24  4  0
 24 25  1  0
 25 26  1  0
M  END
