7KLX_WOV_A_401
     RDKit          3D

 17 18  0  0  0  0  0  0  0  0999 V2000
   35.7340   34.4310   23.7820 C   0  0  0  0  0  0  0  0  0  0  0  0
   34.9480   35.2160   22.9860 C   0  0  0  0  0  0  0  0  0  0  0  0
   34.5900   34.4740   21.8410 C   0  0  0  0  0  0  0  0  0  0  0  0
   35.1470   33.2280   21.9400 C   0  0  0  0  0  0  0  0  0  0  0  0
   35.0630   32.0530   21.0310 C   0  0  0  0  0  0  0  0  0  0  0  0
   39.9870   33.2180   22.8700 O   0  0  0  0  0  0  0  0  0  0  0  0
   36.6400   32.0900   23.6380 C   0  0  0  0  0  0  0  0  0  0  0  0
   38.0160   31.9800   23.3550 C   0  0  0  0  0  0  0  0  0  0  0  0
   38.7320   30.9140   23.8950 C   0  0  0  0  0  0  0  0  0  0  0  0
   38.2290   33.5530   21.6200 O   0  0  0  0  0  0  0  0  0  0  0  0
   38.1030   29.9880   24.7140 C   0  0  0  0  0  0  0  0  0  0  0  0
   36.7470   30.1000   24.9860 C   0  0  0  0  0  0  0  0  0  0  0  0
   36.0150   31.1440   24.4450 C   0  0  0  0  0  0  0  0  0  0  0  0
   38.7600   32.9740   22.5260 C   0  0  0  0  0  0  0  0  0  0  0  0
   38.8460   28.9780   25.2540 O   0  0  0  0  0  0  0  0  0  0  0  0
   35.8620   33.1960   23.1380 N   0  0  0  0  0  0  0  0  0  0  0  0
   36.3830   34.7150   25.0950 C   0  0  0  0  0  0  0  0  0  0  0  0
  1  2  2  0
  2  3  1  0
  3  4  2  0
  4  5  1  0
  7  8  2  0
  8  9  1  0
  9 11  2  0
 11 12  1  0
  7 13  1  0
 12 13  2  0
 10 14  2  0
  6 14  1  0
  8 14  1  0
 11 15  1  0
  4 16  1  0
  7 16  1  0
  1 16  1  0
  1 17  1  0
M  END
$$$$
