7VKZ_NOJ_A_801
     RDKit          3D

 11 11  0  0  0  0  0  0  0  0999 V2000
   52.1788  -18.0280   53.1405 C   0  0  0  0  0  0  0  0  0  0  0  0
   52.2781  -16.8229   54.0754 C   0  0  2  0  0  0  0  0  0  0  0  0
   51.9891  -17.1617   55.3804 O   0  0  0  0  0  0  0  0  0  0  0  0
   51.2798  -15.8155   53.5039 C   0  0  1  0  0  0  0  0  0  0  0  0
   51.0298  -14.7907   54.4044 O   0  0  0  0  0  0  0  0  0  0  0  0
   51.9377  -15.3197   52.2339 C   0  0  2  0  0  0  0  0  0  0  0  0
   51.2662  -14.2658   51.6668 O   0  0  0  0  0  0  0  0  0  0  0  0
   51.9274  -16.5147   51.2791 C   0  0  2  0  0  0  0  0  0  0  0  0
   52.5415  -17.6652   51.8230 N   0  0  0  0  0  0  0  0  0  0  0  0
   52.6429  -16.0961   50.0145 C   0  0  0  0  0  0  0  0  0  0  0  0
   51.7542  -15.9657   48.9607 O   0  0  0  0  0  0  0  0  0  0  0  0
  1  2  1  0
  2  3  1  1
  2  4  1  0
  4  5  1  1
  4  6  1  0
  6  7  1  6
  6  8  1  0
  1  9  1  0
  8  9  1  0
  8 10  1  6
 10 11  1  0
M  END
$$$$
