7P4C_5OV_AAA_905
     RDKit          3D

 16 17  0  0  0  0  0  0  0  0999 V2000
   86.5873   20.3965   28.9146 C   0  0  1  0  0  0  0  0  0  0  0  0
   86.6524   19.0346   28.2063 C   0  0  2  0  0  0  0  0  0  0  0  0
   86.1283   17.8864   29.0522 C   0  0  2  0  0  0  0  0  0  0  0  0
   86.0753   16.6398   28.1832 C   0  0  0  0  0  0  0  0  0  0  0  0
   84.8089   18.1684   29.7946 C   0  0  2  0  0  0  0  0  0  0  0  0
   84.9166   19.4447   30.5805 C   0  0  1  0  0  0  0  0  0  0  0  0
   85.2598   20.6120   29.6397 C   0  0  1  0  0  0  0  0  0  0  0  0
   87.7523   20.3287   29.7850 N   0  0  0  0  0  0  0  0  0  0  0  0
   89.7648   20.4772   28.3970 O   0  0  0  0  0  0  0  0  0  0  0  0
   88.9262   19.4979   29.0248 S   0  0  1  0  0  0  0  0  0  0  0  0
   89.5150   18.4935   29.8360 O   0  0  0  0  0  0  0  0  0  0  0  0
   88.0466   18.7790   27.9287 O   0  0  0  0  0  0  0  0  0  0  0  0
   84.8699   16.6115   27.4206 O   0  0  0  0  0  0  0  0  0  0  0  0
   84.4599   17.0922   30.6721 O   0  0  0  0  0  0  0  0  0  0  0  0
   83.6676   19.7265   31.2469 O   0  0  0  0  0  0  0  0  0  0  0  0
   85.2971   21.8319   30.3758 O   0  0  0  0  0  0  0  0  0  0  0  0
  1  2  1  0
  2  3  1  0
  3  4  1  6
  3  5  1  0
  5  6  1  0
  1  7  1  0
  6  7  1  0
  1  8  1  1
  9 10  2  0
 10  8  1  1
 10 11  2  0
 10 12  1  0
  2 12  1  1
  4 13  1  0
  5 14  1  1
  6 15  1  6
  7 16  1  1
M  END
