7RZL_NPO_A_301
     RDKit          3D

 10 10  0  0  0  0  0  0  0  0999 V2000
   31.3890    5.9680   61.1980 C   0  0  0  0  0  0  0  0  0  0  0  0
   31.6500    4.9220   62.0710 C   0  0  0  0  0  0  0  0  0  0  0  0
   30.5990    4.1740   62.5520 C   0  0  0  0  0  0  0  0  0  0  0  0
   29.3010    4.4690   62.1860 C   0  0  0  0  0  0  0  0  0  0  0  0
   29.0390    5.5070   61.3110 C   0  0  0  0  0  0  0  0  0  0  0  0
   30.0820    6.2660   60.8140 C   0  0  0  0  0  0  0  0  0  0  0  0
   28.2810    3.7210   62.6660 O   0  0  0  0  0  0  0  0  0  0  0  0
   32.4390    6.7380   60.6980 N   0  0  0  0  0  0  0  0  0  0  0  0
   32.1320    7.8040   59.8690 O   0  0  0  0  0  0  0  0  0  0  0  0
   33.6020    6.4890   60.9750 O   0  0  0  0  0  0  0  0  0  0  0  0
  1  2  2  0
  2  3  1  0
  3  4  2  0
  4  5  1  0
  1  6  1  0
  5  6  2  0
  4  7  1  0
  1  8  1  0
  8  9  1  0
  8 10  2  0
M  CHG  2   8   1   9  -1
M  END
$$$$
7RZL_NPO_B_302
     RDKit          3D

 10 10  0  0  0  0  0  0  0  0999 V2000
   -0.6960    4.6090   50.4260 C   0  0  0  0  0  0  0  0  0  0  0  0
   -0.9940    3.3900   49.8240 C   0  0  0  0  0  0  0  0  0  0  0  0
    0.0260    2.5570   49.3770 C   0  0  0  0  0  0  0  0  0  0  0  0
    1.3430    3.0040   49.5350 C   0  0  0  0  0  0  0  0  0  0  0  0
    1.6280    4.2240   50.1350 C   0  0  0  0  0  0  0  0  0  0  0  0
    0.6040    5.0400   50.5860 C   0  0  0  0  0  0  0  0  0  0  0  0
    2.3800    2.2400   49.1300 O   0  0  0  0  0  0  0  0  0  0  0  0
   -1.7410    5.4100   50.8740 N   0  0  0  0  0  0  0  0  0  0  0  0
   -3.0350    4.8980   50.8080 O   0  0  0  0  0  0  0  0  0  0  0  0
   -1.5180    6.5220   51.3200 O   0  0  0  0  0  0  0  0  0  0  0  0
  1  2  2  0
  2  3  1  0
  3  4  2  0
  4  5  1  0
  1  6  1  0
  5  6  2  0
  4  7  1  0
  1  8  1  0
  8  9  1  0
  8 10  2  0
M  CHG  2   8   1   9  -1
M  END
$$$$
