
     RDKit          3D

 15 15  0  0  0  0  0  0  0  0999 V2000
   29.4041   45.0543   92.7738 O   0  0  0  0  0  0  0  0  0  0  0  0
   29.5373   45.7557   91.6283 C   0  0  0  0  0  0  0  0  0  0  0  0
   28.5845   46.3448   91.1466 O   0  0  0  0  0  0  0  0  0  0  0  0
   30.9878   45.7663   91.1116 C   0  0  2  0  0  0  0  0  0  0  0  0
   31.2454   46.7683   89.9019 N   0  0  0  0  0  4  0  0  0  0  0  0
   30.6149   48.1261   90.1767 C   0  0  0  0  0  0  0  0  0  0  0  0
   32.7304   46.9521   89.5879 C   0  0  0  0  0  0  0  0  0  0  0  0
   30.5758   46.1844   88.6470 C   0  0  0  0  0  0  0  0  0  0  0  0
   31.5197   44.3220   90.9224 C   0  0  0  0  0  0  0  0  0  0  0  0
   30.5814   43.2470   90.4937 C   0  0  0  0  0  0  0  0  0  0  0  0
   30.6060   41.9786   91.0310 N   0  0  0  0  0  0  0  0  0  0  0  0
   29.6267   41.1976   90.4095 C   0  0  0  0  0  0  0  0  0  0  0  0
   29.2674   39.6256   90.7127 S   0  0  0  0  0  0  0  0  0  0  0  0
   29.0157   42.0531   89.4906 N   0  0  0  0  0  0  0  0  0  0  0  0
   29.6237   43.2822   89.5495 C   0  0  0  0  0  0  0  0  0  0  0  0
  1  2  1  0
  2  3  2  0
  2  4  1  0
  4  5  1  0
  5  6  1  0
  5  7  1  0
  5  8  1  0
  4  9  1  6
  9 10  1  0
 10 11  4  0
 11 12  4  0
 12 13  2  0
 12 14  4  0
 10 15  4  0
 14 15  4  0
M  CHG  1   5   1
M  END
