
     RDKit          3D

 18 20  0  0  0  0  0  0  0  0999 V2000
   28.5820    4.8955   59.5510 N   0  0  0  0  0  0  0  0  0  0  0  0
   25.2143    4.9868   58.4721 C   0  0  0  0  0  0  0  0  0  0  0  0
   23.3405    7.0512   56.3352 C   0  0  0  0  0  0  0  0  0  0  0  0
   24.1843    5.4057   57.8208 N   0  0  0  0  0  0  0  0  0  0  0  0
   23.2181    8.3956   55.9560 C   0  0  0  0  0  0  0  0  0  0  0  0
   26.5084    3.5723   59.8015 C   0  0  0  0  0  0  0  0  0  0  0  0
   24.1993    2.8439   59.5170 C   0  0  0  0  0  0  0  0  0  0  0  0
   25.2163    3.7447   59.2727 C   0  0  0  0  0  0  0  0  0  0  0  0
   24.3861    6.5982   57.1826 N   0  0  0  0  0  0  0  0  0  0  0  0
   24.5064    1.7414   60.3193 C   0  0  0  0  0  0  0  0  0  0  0  0
   25.8026    1.5649   60.8511 C   0  0  0  0  0  0  0  0  0  0  0  0
   26.8242    2.4870   60.5940 C   0  0  0  0  0  0  0  0  0  0  0  0
   26.4879    5.4889   58.5938 N   0  0  0  0  0  0  0  0  0  0  0  0
   27.3314    4.7051   59.3290 C   0  0  0  0  0  0  0  0  0  0  0  0
   22.1369    8.8289   55.1839 C   0  0  0  0  0  0  0  0  0  0  0  0
   21.1486    7.9258   54.8009 C   0  0  0  0  0  0  0  0  0  0  0  0
   21.2322    6.5943   55.2048 C   0  0  0  0  0  0  0  0  0  0  0  0
   22.3148    6.1642   55.9775 C   0  0  0  0  0  0  0  0  0  0  0  0
  2  4  2  0
  3  5  4  0
  7  8  4  0
  6  8  4  0
  2  8  1  0
  4  9  1  0
  3  9  1  0
  7 10  4  0
 10 11  4  0
  6 12  4  0
 11 12  4  0
  2 13  1  0
 13 14  1  0
  1 14  2  0
  6 14  1  0
  5 15  4  0
 15 16  4  0
 16 17  4  0
 17 18  4  0
  3 18  4  0
M  END
