8SLG_G5A_B_504
     RDKit          3D

 27 29  0  0  0  0  0  0  0  0999 V2000
  -38.7650   40.4960   29.1220 C   0  0  0  0  0  0  0  0  0  0  0  0
  -36.8100   39.1370   29.5930 N   0  0  0  0  0  0  0  0  0  0  0  0
  -38.7800   39.9880   28.0140 O   0  0  0  0  0  0  0  0  0  0  0  0
  -40.6560   42.1740   28.4830 S   0  0  0  0  0  0  0  0  0  0  0  0
  -42.0160   45.1840   20.2080 N   0  0  0  0  0  0  0  0  0  0  0  0
  -41.1300   46.0570   20.6930 C   0  0  0  0  0  0  0  0  0  0  0  0
  -40.5320   46.0720   21.8770 N   0  0  0  0  0  0  0  0  0  0  0  0
  -40.9340   45.0320   22.6190 C   0  0  0  0  0  0  0  0  0  0  0  0
  -41.8350   44.0560   22.2630 C   0  0  0  0  0  0  0  0  0  0  0  0
  -42.4050   44.1470   20.9830 C   0  0  0  0  0  0  0  0  0  0  0  0
  -43.2890   43.2820   20.5000 N   0  0  0  0  0  0  0  0  0  0  0  0
  -41.9910   43.1490   23.3010 N   0  0  0  0  0  0  0  0  0  0  0  0
  -41.1950   43.5890   24.2470 C   0  0  0  0  0  0  0  0  0  0  0  0
  -40.5260   44.7280   23.8860 N   0  0  0  0  0  0  0  0  0  0  0  0
  -37.8290   40.0040   30.1890 C   0  0  0  0  0  0  0  0  0  0  0  0
  -39.5740   45.5000   24.6640 C   0  0  1  0  0  0  0  0  0  0  0  0
  -41.5020   41.1310   28.0530 O   0  0  0  0  0  0  0  0  0  0  0  0
  -40.2430   46.4830   25.6200 C   0  0  2  0  0  0  0  0  0  0  0  0
  -39.5250   47.6930   25.6640 O   0  0  0  0  0  0  0  0  0  0  0  0
  -41.1900   43.2850   29.1660 O   0  0  0  0  0  0  0  0  0  0  0  0
  -40.2020   45.7300   26.9500 C   0  0  2  0  0  0  0  0  0  0  0  0
  -40.1970   46.6180   28.0570 O   0  0  0  0  0  0  0  0  0  0  0  0
  -39.5470   41.5110   29.4630 N   0  0  0  0  0  0  0  0  0  0  0  0
  -38.8760   44.9740   26.8320 C   0  0  2  0  0  0  0  0  0  0  0  0
  -38.8060   44.6070   25.4350 O   0  0  0  0  0  0  0  0  0  0  0  0
  -38.7530   43.7320   27.6790 C   0  0  0  0  0  0  0  0  0  0  0  0
  -39.8090   42.7910   27.3190 O   0  0  0  0  0  0  0  0  0  0  0  0
  1  3  2  0
  5  6  2  0
  6  7  1  0
  7  8  2  0
  8  9  1  0
  9 10  2  0
  5 10  1  0
 10 11  1  0
  9 12  1  0
 12 13  2  0
 13 14  1  0
  8 14  1  0
  2 15  1  0
  1 15  1  0
 16 14  1  1
  4 17  2  0
 16 18  1  0
 18 19  1  1
  4 20  2  0
 18 21  1  0
 21 22  1  1
  1 23  1  0
  4 23  1  0
 21 24  1  0
 24 25  1  0
 16 25  1  0
 24 26  1  1
  4 27  1  0
 26 27  1  0
M  END
$$$$
8SLG_G5A_A_501
     RDKit          3D

 27 29  0  0  0  0  0  0  0  0999 V2000
  -23.5270   36.7600    0.2920 C   0  0  0  0  0  0  0  0  0  0  0  0
  -24.8780   38.7600    0.0600 N   0  0  0  0  0  0  0  0  0  0  0  0
  -24.3030   36.3990    1.1600 O   0  0  0  0  0  0  0  0  0  0  0  0
  -21.8580   34.8560    0.8630 S   0  0  0  0  0  0  0  0  0  0  0  0
  -21.6180   30.7010    8.7400 N   0  0  0  0  0  0  0  0  0  0  0  0
  -20.8070   31.7470    8.9270 C   0  0  0  0  0  0  0  0  0  0  0  0
  -20.4890   32.7220    8.0860 N   0  0  0  0  0  0  0  0  0  0  0  0
  -21.1140   32.5520    6.9130 C   0  0  0  0  0  0  0  0  0  0  0  0
  -21.9690   31.5320    6.5670 C   0  0  0  0  0  0  0  0  0  0  0  0
  -22.2300   30.5560    7.5440 C   0  0  0  0  0  0  0  0  0  0  0  0
  -23.0350   29.5160    7.3610 N   0  0  0  0  0  0  0  0  0  0  0  0
  -22.4100   31.7030    5.2630 N   0  0  0  0  0  0  0  0  0  0  0  0
  -21.8210   32.8020    4.8550 C   0  0  0  0  0  0  0  0  0  0  0  0
  -21.0270   33.3600    5.8180 N   0  0  0  0  0  0  0  0  0  0  0  0
  -23.8090   37.9660   -0.5510 C   0  0  0  0  0  0  0  0  0  0  0  0
  -20.2220   34.5580    5.7330 C   0  0  1  0  0  0  0  0  0  0  0  0
  -22.7410   33.8010    0.5650 O   0  0  0  0  0  0  0  0  0  0  0  0
  -18.8970   34.3280    5.0140 C   0  0  2  0  0  0  0  0  0  0  0  0
  -17.8850   35.0710    5.6490 O   0  0  0  0  0  0  0  0  0  0  0  0
  -20.4890   34.7480    0.5550 O   0  0  0  0  0  0  0  0  0  0  0  0
  -19.2090   34.8150    3.5990 C   0  0  2  0  0  0  0  0  0  0  0  0
  -18.0350   35.2390    2.9240 O   0  0  0  0  0  0  0  0  0  0  0  0
  -22.3850   36.1400    0.0380 N   0  0  0  0  0  0  0  0  0  0  0  0
  -20.1460   35.9910    3.8920 C   0  0  2  0  0  0  0  0  0  0  0  0
  -20.9410   35.5260    5.0050 O   0  0  0  0  0  0  0  0  0  0  0  0
  -21.0650   36.4100    2.7700 C   0  0  0  0  0  0  0  0  0  0  0  0
  -21.8980   35.2830    2.3670 O   0  0  0  0  0  0  0  0  0  0  0  0
  1  3  2  0
  5  6  2  0
  6  7  1  0
  7  8  2  0
  8  9  1  0
  9 10  2  0
  5 10  1  0
 10 11  1  0
  9 12  1  0
 12 13  2  0
 13 14  1  0
  8 14  1  0
  2 15  1  0
  1 15  1  0
 16 14  1  6
  4 17  2  0
 16 18  1  0
 18 19  1  1
  4 20  2  0
 18 21  1  0
 21 22  1  1
  1 23  1  0
  4 23  1  0
 21 24  1  0
 24 25  1  0
 16 25  1  0
 24 26  1  6
  4 27  1  0
 26 27  1  0
M  END
$$$$
