
     RDKit          3D

 28 30  0  0  0  0  0  0  0  0999 V2000
   39.3362   36.3139   21.2232 C   0  0  2  0  0  0  0  0  0  0  0  0
   35.1379   36.3161   20.1743 C   0  0  0  0  0  0  0  0  0  0  0  0
   40.5982   35.9827   22.0388 C   0  0  1  0  0  0  0  0  0  0  0  0
   41.5421   35.4880   20.9536 C   0  0  1  0  0  0  0  0  0  0  0  0
   37.0274   35.4301   20.8939 C   0  0  0  0  0  0  0  0  0  0  0  0
   41.1838   36.4345   19.8116 C   0  0  1  0  0  0  0  0  0  0  0  0
   36.4362   34.1946   21.0982 C   0  0  0  0  0  0  0  0  0  0  0  0
   41.6645   35.9670   18.4422 C   0  0  0  0  0  0  0  0  0  0  0  0
   35.0705   34.0877   20.7800 C   0  0  0  0  0  0  0  0  0  0  0  0
   38.4820   33.9708   21.6827 C   0  0  0  0  0  0  0  0  0  0  0  0
   34.4246   35.1830   20.3238 N   0  0  0  0  0  0  0  0  0  0  0  0
   36.4427   36.5480   20.4348 N   0  0  0  0  0  0  0  0  0  0  0  0
   34.3497   32.9121   20.9272 N   0  0  0  0  0  0  0  0  0  0  0  0
   37.3515   33.2977   21.6056 N   0  0  0  0  0  0  0  0  0  0  0  0
   38.3321   35.2680   21.2750 N   0  0  0  0  0  0  0  0  0  0  0  0
   39.2496   34.8519   16.3558 O   0  0  0  0  0  0  0  0  0  0  0  0
   43.0139   32.9265   15.0688 O   0  0  0  0  0  0  0  0  0  0  0  0
   41.1404   37.1727   22.6394 O   0  0  0  0  0  0  0  0  0  0  0  0
   40.8303   32.8429   16.4709 O   0  0  0  0  0  0  0  0  0  0  0  0
   43.9384   34.4937   16.7274 O   0  0  0  0  0  0  0  0  0  0  0  0
   42.8982   35.5126   21.3559 O   0  0  0  0  0  0  0  0  0  0  0  0
   41.7485   35.0628   15.6798 O   0  0  0  0  0  0  0  0  0  0  0  0
   43.9782   35.1944   14.2828 O   0  0  0  0  0  0  0  0  0  0  0  0
   39.7454   36.5214   19.8457 O   0  0  0  0  0  0  0  0  0  0  0  0
   41.1447   34.6866   18.1290 O   0  0  0  0  0  0  0  0  0  0  0  0
   40.6545   34.4222   16.6260 P   0  0  1  0  0  5  0  0  0  0  0  0
   43.1744   34.4958   15.3218 P   0  0  0  0  0  5  0  0  0  0  0  0
   34.2627   37.6678   19.5945 Cl  0  0  0  0  0  0  0  0  0  0  0  0
  1  3  1  0
  3  4  1  0
  4  6  1  0
  5  7  4  0
  6  8  1  6
  7  9  4  0
  2 11  4  0
  9 11  4  0
  2 12  4  0
  5 12  4  0
  9 13  1  0
  7 14  4  0
 10 14  4  0
  5 15  4  0
  1 15  1  6
 10 15  4  0
  3 18  1  6
  4 21  1  1
  6 24  1  0
  1 24  1  0
  8 25  1  0
 16 26  2  0
 26 22  1  0
 26 19  1  6
 25 26  1  0
 23 27  2  0
 17 27  1  0
 22 27  1  0
 20 27  1  0
  2 28  1  0
M  END
