7T0U_E3I_A_204
     RDKit          3D

 77 82  0  0  0  0  0  0  0  0999 V2000
  -32.9741    3.7050   -0.3892 C   0  0  0  0  0  0  0  0  0  0  0  0
  -35.1608    2.8509    0.3337 C   0  0  0  0  0  0  0  0  0  0  0  0
  -36.5985    3.0566    0.2858 C   0  0  0  0  0  0  0  0  0  0  0  0
  -37.7475    2.2954    0.8029 C   0  0  0  0  0  0  0  0  0  0  0  0
  -37.9125    1.0896    1.5790 C   0  0  0  0  0  0  0  0  0  0  0  0
  -38.2967    1.1714    2.9189 C   0  0  0  0  0  0  0  0  0  0  0  0
  -38.4337    0.0777    3.6684 C   0  0  0  0  0  0  0  0  0  0  0  0
  -38.2204   -1.2049    3.1876 C   0  0  0  0  0  0  0  0  0  0  0  0
  -37.8377   -1.3411    1.8280 C   0  0  0  0  0  0  0  0  0  0  0  0
  -37.5674   -2.6499    1.1735 C   0  0  0  0  0  0  0  0  0  0  0  0
  -37.6723   -0.1805    1.0685 C   0  0  0  0  0  0  0  0  0  0  0  0
  -38.8260    3.0434    0.3624 C   0  0  0  0  0  0  0  0  0  0  0  0
  -39.3523    5.0384   -0.8771 C   0  0  0  0  0  0  0  0  0  0  0  0
  -40.0626    4.5811   -2.0972 C   0  0  0  0  0  0  0  0  0  0  0  0
  -41.3470    2.7264   -1.0549 C   0  0  0  0  0  0  0  0  0  0  0  0
  -40.7578    1.8817   -0.0774 C   0  0  0  0  0  0  0  0  0  0  0  0
  -41.5581    1.2019    0.8787 C   0  0  0  0  0  0  0  0  0  0  0  0
  -41.4247    0.5573    3.2697 C   0  0  2  0  0  0  0  0  0  0  0  0
  -40.9452    1.8557    3.8715 C   0  0  0  0  0  0  0  0  0  0  0  0
  -40.9775   -0.7045    4.1089 C   0  0  0  0  0  0  0  0  0  0  0  0
  -39.2159   -2.0885    4.6635 C   0  0  2  0  0  0  0  0  0  0  0  0
  -40.4177   -3.0103    4.8764 C   0  0  0  0  0  0  0  0  0  0  0  0
  -39.1615   -1.9562    6.2019 C   0  0  0  0  0  0  0  0  0  0  0  0
  -39.2407   -1.1345    2.5653 C   0  0  0  0  0  0  0  0  0  0  0  0
  -39.5073    0.1206    1.8352 C   0  0  0  0  0  0  0  0  0  0  0  0
  -43.4440    2.1835   -0.0703 C   0  0  0  0  0  0  0  0  0  0  0  0
  -42.6977    2.8680   -1.0347 C   0  0  0  0  0  0  0  0  0  0  0  0
  -37.0712    4.1646   -0.4583 C   0  0  0  0  0  0  0  0  0  0  0  0
  -35.0504    4.8744   -1.0537 C   0  0  0  0  0  0  0  0  0  0  0  0
  -34.2144    5.8864   -1.7382 C   0  0  1  0  0  0  0  0  0  0  0  0
  -34.9264    6.8824   -2.3262 F   0  0  0  0  0  0  0  0  0  0  0  0
  -33.3412    6.5028   -1.0241 F   0  0  0  0  0  0  0  0  0  0  0  0
  -33.5123    5.3824   -2.8231 F   0  0  0  0  0  0  0  0  0  0  0  0
  -34.4363    3.8407   -0.4129 N   0  0  0  0  0  4  0  0  0  0  0  0
  -38.4794   -3.6274    1.3891 N   0  0  0  0  0  0  0  0  0  0  0  0
  -38.4260    4.1345   -0.3474 N   0  0  0  0  0  4  0  0  0  0  0  0
  -40.6008    3.3348   -2.0901 N   0  0  0  0  0  0  0  0  0  0  0  0
  -41.0121    0.4295    1.8296 N   0  0  0  0  0  0  0  0  0  0  0  0
  -39.5190   -0.8202    3.9173 N   0  0  0  0  0  0  0  0  0  0  0  0
  -42.8996    1.3981    0.8589 N   0  0  0  0  0  0  0  0  0  0  0  0
  -36.3463    5.0941   -1.1134 N   0  0  0  0  0  0  0  0  0  0  0  0
  -34.5584    1.9856    0.8958 O   0  0  0  0  0  0  0  0  0  0  0  0
  -38.3565   -2.2770    3.9537 O   0  0  0  0  0  0  0  0  0  0  0  0
  -36.5373   -2.8756    0.5457 O   0  0  0  0  0  0  0  0  0  0  0  0
  -40.2655   -2.9066    6.3163 O   0  0  0  0  0  0  0  0  0  0  0  0
  -40.1109    5.3324   -3.0594 O   0  0  0  0  0  0  0  0  0  0  0  0
  -38.8964    0.3139    5.3256 Cl  0  0  0  0  0  0  0  0  0  0  0  0
  -43.5620    3.8020   -2.1677 Cl  0  0  0  0  0  0  0  0  0  0  0  0
  -32.7061    2.8295    0.1645 H   0  0  0  0  0  0  0  0  0  0  0  0
  -32.6075    3.6195   -1.3908 H   0  0  0  0  0  0  0  0  0  0  0  0
  -32.5433    4.5669    0.0760 H   0  0  0  0  0  0  0  0  0  0  0  0
  -38.4782    2.0970    3.3373 H   0  0  0  0  0  0  0  0  0  0  0  0
  -37.3592   -0.2697    0.0892 H   0  0  0  0  0  0  0  0  0  0  0  0
  -39.8122    2.8035    0.5492 H   0  0  0  0  0  0  0  0  0  0  0  0
  -38.8315    5.9418   -1.1173 H   0  0  0  0  0  0  0  0  0  0  0  0
  -40.1051    5.1622   -0.1269 H   0  0  0  0  0  0  0  0  0  0  0  0
  -39.7332    1.7600   -0.0615 H   0  0  0  0  0  0  0  0  0  0  0  0
  -42.4938    0.5858    3.3039 H   0  0  0  0  0  0  0  0  0  0  0  0
  -39.8756    1.8798    3.8620 H   0  0  0  0  0  0  0  0  0  0  0  0
  -41.3255    2.6759    3.2992 H   0  0  0  0  0  0  0  0  0  0  0  0
  -41.2948    1.9321    4.8799 H   0  0  0  0  0  0  0  0  0  0  0  0
  -41.2070   -0.5634    5.1444 H   0  0  0  0  0  0  0  0  0  0  0  0
  -41.4874   -1.5896    3.7903 H   0  0  0  0  0  0  0  0  0  0  0  0
  -38.3612   -2.3822    4.0906 H   0  0  0  0  0  0  0  0  0  0  0  0
  -41.3402   -2.6128    4.5076 H   0  0  0  0  0  0  0  0  0  0  0  0
  -40.4438   -3.9723    4.4088 H   0  0  0  0  0  0  0  0  0  0  0  0
  -38.2451   -2.2950    6.6383 H   0  0  0  0  0  0  0  0  0  0  0  0
  -39.2215   -0.9946    6.6674 H   0  0  0  0  0  0  0  0  0  0  0  0
  -39.8820   -1.9179    2.2188 H   0  0  0  0  0  0  0  0  0  0  0  0
  -38.2389   -1.4834    2.4252 H   0  0  0  0  0  0  0  0  0  0  0  0
  -38.9846    0.9234    2.3119 H   0  0  0  0  0  0  0  0  0  0  0  0
  -39.1723    0.0116    0.8249 H   0  0  0  0  0  0  0  0  0  0  0  0
  -44.4702    2.2921   -0.0785 H   0  0  0  0  0  0  0  0  0  0  0  0
  -39.3011   -3.4312    1.8945 H   0  0  0  0  0  0  0  0  0  0  0  0
  -38.3207   -4.5343    1.0404 H   0  0  0  0  0  0  0  0  0  0  0  0
  -40.4548    2.7924   -2.8986 H   0  0  0  0  0  0  0  0  0  0  0  0
  -38.6093   -2.1827    4.8510 H   0  0  0  0  0  0  0  0  0  0  0  0
  2  3  4  0
  3  4  4  0
  4  5  1  0
  5  6  4  0
  6  7  4  0
  7  8  4  0
  8  9  4  0
  9 10  1  0
  9 11  4  0
  5 11  4  0
  4 12  4  0
 13 14  1  0
 15 16  4  0
 16 17  4  0
 18 19  1  0
 18 20  1  0
 21 22  1  0
 21 23  1  0
 24 25  1  0
 15 27  4  0
 26 27  4  0
  3 28  4  0
 29 30  1  0
 30 31  1  1
 30 32  1  0
 30 33  1  0
  2 34  4  0
  1 34  1  0
 29 34  4  0
 10 35  1  0
 12 36  4  0
 13 36  1  0
 28 36  4  0
 14 37  1  0
 15 37  1  0
 17 38  1  0
 18 38  1  0
 25 38  1  0
 20 39  1  0
 24 39  1  0
 21 39  1  0
 26 40  4  0
 17 40  4  0
 28 41  4  0
 29 41  4  0
  2 42  2  0
  8 43  1  0
 10 44  2  0
 22 45  1  0
 23 45  1  0
 14 46  2  0
  7 47  1  0
 27 48  1  0
  1 49  1  0
  1 50  1  0
  1 51  1  0
  6 52  1  0
 11 53  1  0
 12 54  1  0
 13 55  1  0
 13 56  1  0
 16 57  1  0
 18 58  1  1
 19 59  1  0
 19 60  1  0
 19 61  1  0
 20 62  1  0
 20 63  1  0
 21 64  1  1
 22 65  1  0
 22 66  1  0
 23 67  1  0
 23 68  1  0
 24 69  1  0
 24 70  1  0
 25 71  1  0
 25 72  1  0
 26 73  1  0
 35 74  1  0
 35 75  1  0
 37 76  1  0
 43 77  1  0
M  CHG  2  34   1  36   1
M  END
