1JD0_AZM_B_2401
     RDKit          3D

 13 13  0  0  0  0  0  0  0  0999 V2000
   10.6767   10.6491   32.1390 C   0  0  0  0  0  0  0  0  0  0  0  0
   10.6461   12.8826   30.7145 C   0  0  0  0  0  0  0  0  0  0  0  0
   11.5703   13.5182   28.5688 C   0  0  0  0  0  0  0  0  0  0  0  0
   11.8062   14.4897   27.4594 C   0  0  0  0  0  0  0  0  0  0  0  0
   10.7020    8.8120   34.3520 N   0  0  0  0  0  0  0  0  0  0  0  0
    9.9687   12.6832   31.6985 N   0  0  0  0  0  0  0  0  0  0  0  0
   10.0084   11.5833   32.3690 N   0  0  0  0  0  0  0  0  0  0  0  0
   10.8936   13.9126   29.7281 N   0  0  0  0  0  0  0  0  0  0  0  0
   12.5615    8.9033   32.5250 O   0  0  0  0  0  0  0  0  0  0  0  0
   10.3970    7.9889   31.8561 O   0  0  0  0  0  0  0  0  0  0  0  0
   11.9701   12.3140   28.5014 O   0  0  0  0  0  0  0  0  0  0  0  0
   11.0753    9.0276   32.7032 S   0  0  2  0  0  0  0  0  0  0  0  0
   11.5727   11.3040   30.5813 S   0  0  0  0  0  0  0  0  0  0  0  0
  3  4  1  0
  2  6  2  0
  1  7  2  0
  6  7  1  0
  2  8  1  0
  3  8  1  0
  3 11  2  0
  1 12  1  0
 12  5  1  1
  9 12  2  0
 10 12  2  0
  1 13  1  0
  2 13  1  0
M  END
$$$$
