1JD0_AZM_B_2401
     RDKit          3D

 13 13  0  0  0  0  0  0  0  0999 V2000
  -13.1224   -6.5060   21.2158 C   0  0  0  0  0  0  0  0  0  0  0  0
  -15.4834   -5.3799   20.7961 C   0  0  0  0  0  0  0  0  0  0  0  0
  -17.4025   -3.9167   20.9922 C   0  0  0  0  0  0  0  0  0  0  0  0
  -18.8413   -3.5761   20.7831 C   0  0  0  0  0  0  0  0  0  0  0  0
  -10.7254   -7.6805   20.1442 N   0  0  0  0  0  0  0  0  0  0  0  0
  -14.4585   -4.7722   21.0130 N   0  0  0  0  0  0  0  0  0  0  0  0
  -13.3253   -5.3523   21.2132 N   0  0  0  0  0  0  0  0  0  0  0  0
  -16.8852   -5.1331   20.5335 N   0  0  0  0  0  0  0  0  0  0  0  0
  -12.5662   -9.0370   21.3993 O   0  0  0  0  0  0  0  0  0  0  0  0
  -11.1741   -7.5503   22.7483 O   0  0  0  0  0  0  0  0  0  0  0  0
  -16.6058   -3.1250   21.5865 O   0  0  0  0  0  0  0  0  0  0  0  0
  -11.8553   -7.7141   21.4196 S   0  0  2  0  0  0  0  0  0  0  0  0
  -14.8979   -7.1184   20.8540 S   0  0  0  0  0  0  0  0  0  0  0  0
  3  4  1  0
  2  6  2  0
  1  7  2  0
  6  7  1  0
  2  8  1  0
  3  8  1  0
  3 11  2  0
  1 12  1  0
 12  5  1  6
  9 12  2  0
 10 12  2  0
  1 13  1  0
  2 13  1  0
M  END
$$$$
