1JD0_AZM_B_2401
     RDKit          3D

 13 13  0  0  0  0  0  0  0  0999 V2000
  -13.0991   -6.3684   21.0764 C   0  0  0  0  0  0  0  0  0  0  0  0
  -15.2802   -4.9401   20.6061 C   0  0  0  0  0  0  0  0  0  0  0  0
  -17.6054   -5.5122   20.2472 C   0  0  0  0  0  0  0  0  0  0  0  0
  -19.0296   -5.1674   19.9594 C   0  0  0  0  0  0  0  0  0  0  0  0
  -10.8388   -7.9061   20.1822 N   0  0  0  0  0  0  0  0  0  0  0  0
  -14.1613   -4.4836   20.6871 N   0  0  0  0  0  0  0  0  0  0  0  0
  -13.1207   -5.2081   20.9173 N   0  0  0  0  0  0  0  0  0  0  0  0
  -16.6414   -4.5061   20.3743 N   0  0  0  0  0  0  0  0  0  0  0  0
  -12.9092   -8.9410   21.3849 O   0  0  0  0  0  0  0  0  0  0  0  0
  -11.3920   -7.5996   22.7512 O   0  0  0  0  0  0  0  0  0  0  0  0
  -17.2218   -6.7156   20.3854 O   0  0  0  0  0  0  0  0  0  0  0  0
  -12.0234   -7.7280   21.3943 S   0  0  2  0  0  0  0  0  0  0  0  0
  -14.9683   -6.7268   20.8867 S   0  0  0  0  0  0  0  0  0  0  0  0
  3  4  1  0
  2  6  2  0
  1  7  2  0
  6  7  1  0
  2  8  1  0
  3  8  1  0
  3 11  2  0
  1 12  1  0
 12  5  1  6
  9 12  2  0
 10 12  2  0
  1 13  1  0
  2 13  1  0
M  END
$$$$
