1JD0_AZM_B_2401
     RDKit          3D

 13 13  0  0  0  0  0  0  0  0999 V2000
   17.4089    5.5443   25.2213 C   0  0  0  0  0  0  0  0  0  0  0  0
   18.4324    7.9459   25.6721 C   0  0  0  0  0  0  0  0  0  0  0  0
   18.8753   10.3237   25.5617 C   0  0  0  0  0  0  0  0  0  0  0  0
   19.7701   11.5128   25.6863 C   0  0  0  0  0  0  0  0  0  0  0  0
   16.4328    3.0589   26.2906 N   0  0  0  0  0  0  0  0  0  0  0  0
   17.2630    7.7262   25.4458 N   0  0  0  0  0  0  0  0  0  0  0  0
   16.7981    6.5437   25.2306 N   0  0  0  0  0  0  0  0  0  0  0  0
   19.3190    9.0554   25.9516 N   0  0  0  0  0  0  0  0  0  0  0  0
   18.6692    3.2867   24.9673 O   0  0  0  0  0  0  0  0  0  0  0  0
   16.5994    3.4897   23.6855 O   0  0  0  0  0  0  0  0  0  0  0  0
   17.6941   10.4189   25.1033 O   0  0  0  0  0  0  0  0  0  0  0  0
   17.2588    3.8023   24.9985 S   0  0  2  0  0  0  0  0  0  0  0  0
   19.1434    6.2554   25.6010 S   0  0  0  0  0  0  0  0  0  0  0  0
  3  4  1  0
  2  6  2  0
  1  7  2  0
  6  7  1  0
  2  8  1  0
  3  8  1  0
  3 11  2  0
  1 12  1  0
 12  5  1  1
  9 12  2  0
 10 12  2  0
  1 13  1  0
  2 13  1  0
M  END
$$$$
