8CNH_V6U_A_501
     RDKit          3D

 25 27  0  0  0  0  0  0  0  0999 V2000
  -17.5593  -14.4852   12.1504 C   0  0  0  0  0  0  0  0  0  0  0  0
  -18.7232  -14.8113   11.5127 C   0  0  0  0  0  0  0  0  0  0  0  0
  -19.7901  -15.2279   12.3372 C   0  0  0  0  0  0  0  0  0  0  0  0
  -19.6875  -15.3116   13.6990 C   0  0  0  0  0  0  0  0  0  0  0  0
  -18.5122  -14.9851   14.3345 C   0  0  0  0  0  0  0  0  0  0  0  0
  -17.4653  -14.5759   13.5417 C   0  0  0  0  0  0  0  0  0  0  0  0
  -22.6057  -17.9560    8.7245 C   0  0  0  0  0  0  0  0  0  0  0  0
  -23.4955  -11.3920    9.6871 C   0  0  0  0  0  0  0  0  0  0  0  0
  -23.1486  -12.7198    9.6463 C   0  0  0  0  0  0  0  0  0  0  0  0
  -21.8894  -13.1979    9.4518 C   0  0  0  0  0  0  0  0  0  0  0  0
  -21.2248  -10.9632    9.3234 C   0  0  0  0  0  0  0  0  0  0  0  0
  -21.4762  -14.5800    9.3907 C   0  0  0  0  0  0  0  0  0  0  0  0
  -20.3215  -15.2249    9.6309 C   0  0  0  0  0  0  0  0  0  0  0  0
  -20.6362  -16.5965    9.3973 C   0  0  0  0  0  0  0  0  0  0  0  0
  -18.9759  -14.8733   10.0852 C   0  0  0  0  0  0  0  0  0  0  0  0
  -16.4119  -13.9430   11.4457 C   0  0  0  0  0  0  0  0  0  0  0  0
  -13.9840  -13.5494   11.4310 C   0  0  0  0  0  0  0  0  0  0  0  0
  -22.4748  -10.5052    9.5163 N   0  0  0  0  0  0  0  0  0  0  0  0
  -20.9037  -12.2662    9.2862 N   0  0  0  0  0  0  0  0  0  0  0  0
  -21.9152  -16.7132    9.0435 N   0  0  0  0  0  0  0  0  0  0  0  0
  -22.4247  -15.5287    9.0359 N   0  0  0  0  0  0  0  0  0  0  0  0
  -20.1413  -10.0343    9.1423 N   0  0  0  0  0  0  0  0  0  0  0  0
  -15.1230  -14.1874   11.9735 O   0  0  0  0  0  0  0  0  0  0  0  0
  -16.4248  -13.2721   10.4055 O   0  0  0  0  0  0  0  0  0  0  0  0
  -25.1300  -10.8541    9.9398 Cl  0  0  0  0  0  0  0  0  0  0  0  0
  1  2  2  0
  2  3  1  0
  3  4  2  0
  4  5  1  0
  1  6  1  0
  5  6  2  0
  8  9  2  0
  9 10  1  0
 10 12  1  0
 12 13  1  0
 13 14  2  0
 13 15  1  0
  2 15  1  0
  1 16  1  0
 11 18  2  0
  8 18  1  0
 11 19  1  0
 10 19  2  0
 14 20  1  0
  7 20  1  0
 12 21  2  0
 20 21  1  0
 11 22  1  0
 17 23  1  0
 16 23  1  0
 16 24  2  0
  8 25  1  0
M  END
$$$$
