7MZS_GLA_A_301
     RDKit          3D

 24 24  0  0  0  0  0  0  0  0999 V2000
  -13.5822  -19.4135   18.4316 C   0  0  2  0  0  0  0  0  0  0  0  0
  -12.4613  -20.1990   19.1231 C   0  0  2  0  0  0  0  0  0  0  0  0
  -11.9614  -21.3337   18.3057 C   0  0  1  0  0  0  0  0  0  0  0  0
  -11.5707  -20.8702   16.9309 C   0  0  1  0  0  0  0  0  0  0  0  0
  -12.7168  -20.0977   16.2888 C   0  0  2  0  0  0  0  0  0  0  0  0
  -12.2652  -19.5742   14.9430 C   0  0  0  0  0  0  0  0  0  0  0  0
  -14.7366  -20.1692   18.3257 O   0  0  0  0  0  0  0  0  0  0  0  0
  -12.9686  -20.6954   20.3860 O   0  0  0  0  0  0  0  0  0  0  0  0
  -10.8277  -21.9839   18.9489 O   0  0  0  0  0  0  0  0  0  0  0  0
  -10.4351  -20.0071   16.9798 O   0  0  0  0  0  0  0  0  0  0  0  0
  -13.1708  -18.9771   17.1264 O   0  0  0  0  0  0  0  0  0  0  0  0
  -12.7150  -18.2402   14.7803 O   0  0  0  0  0  0  0  0  0  0  0  0
  -13.7902  -18.5569   19.0383 H   0  0  0  0  0  0  0  0  0  0  0  0
  -11.6329  -19.5374   19.2673 H   0  0  0  0  0  0  0  0  0  0  0  0
  -12.7570  -22.0438   18.2184 H   0  0  0  0  0  0  0  0  0  0  0  0
  -11.3357  -21.7425   16.3576 H   0  0  0  0  0  0  0  0  0  0  0  0
  -13.5436  -20.7674   16.1758 H   0  0  0  0  0  0  0  0  0  0  0  0
  -11.1967  -19.5992   14.8908 H   0  0  0  0  0  0  0  0  0  0  0  0
  -12.6745  -20.1861   14.1665 H   0  0  0  0  0  0  0  0  0  0  0  0
  -14.5626  -20.9503   17.7776 H   0  0  0  0  0  0  0  0  0  0  0  0
  -13.7168  -21.2906   20.2223 H   0  0  0  0  0  0  0  0  0  0  0  0
  -10.0978  -21.3507   19.0346 H   0  0  0  0  0  0  0  0  0  0  0  0
  -10.6512  -19.2176   17.5001 H   0  0  0  0  0  0  0  0  0  0  0  0
  -12.3439  -17.6857   15.4843 H   0  0  0  0  0  0  0  0  0  0  0  0
  1  2  1  0
  2  3  1  0
  3  4  1  0
  4  5  1  0
  5  6  1  0
  1  7  1  0
  2  8  1  0
  3  9  1  0
  4 10  1  0
  1 11  1  0
  5 11  1  0
  6 12  1  0
  1 13  1  6
  2 14  1  6
  3 15  1  1
  4 16  1  1
  5 17  1  1
  6 18  1  0
  6 19  1  0
  7 20  1  0
  8 21  1  0
  9 22  1  0
 10 23  1  0
 12 24  1  0
M  END
