7WQQ_5Z6_A_501
     RDKit          3D

 27 28  0  0  0  0  0  0  0  0999 V2000
   29.5131   -4.9566   10.6417 C   0  0  0  0  0  0  0  0  0  0  0  0
   31.7227   -3.1944   11.6563 C   0  0  0  0  0  0  0  0  0  0  0  0
   33.7863   -2.0961   11.2337 C   0  0  0  0  0  0  0  0  0  0  0  0
   32.7319   -3.3071    9.4711 C   0  0  0  0  0  0  0  0  0  0  0  0
   26.5591   -7.3114   10.0215 C   0  0  0  0  0  0  0  0  0  0  0  0
   25.3068   -7.5597   10.5198 C   0  0  0  0  0  0  0  0  0  0  0  0
   25.2703   -9.3939    8.8152 C   0  0  0  0  0  0  0  0  0  0  0  0
   23.1597   -8.7113   10.1086 C   0  0  0  0  0  0  0  0  0  0  0  0
   25.4693   -4.3307   14.0167 C   0  0  0  0  0  0  0  0  0  0  0  0
   24.7012   -4.4793   12.7061 C   0  0  2  0  0  0  0  0  0  0  0  0
   24.7009   -3.1021   12.0214 C   0  0  0  0  0  0  0  0  0  0  0  0
   23.2668   -4.8964   13.0257 C   0  0  0  0  0  0  0  0  0  0  0  0
   25.3408   -5.5254   11.7761 C   0  0  0  0  0  0  0  0  0  0  0  0
   26.5865   -5.2748   11.2625 C   0  0  0  0  0  0  0  0  0  0  0  0
   27.1990   -6.1400   10.3955 C   0  0  0  0  0  0  0  0  0  0  0  0
   28.5957   -5.8884    9.8591 C   0  0  0  0  0  0  0  0  0  0  0  0
   30.6226   -4.5371    9.7497 C   0  0  0  0  0  0  0  0  0  0  0  0
   31.7271   -3.6411   10.3448 C   0  0  0  0  0  0  0  0  0  0  0  0
   32.8045   -2.4242   12.1142 C   0  0  0  0  0  0  0  0  0  0  0  0
   34.9770   -1.2791   11.7343 C   0  0  0  0  0  0  0  0  0  0  0  0
   33.8077   -2.5501    9.9194 C   0  0  0  0  0  0  0  0  0  0  0  0
   24.6654   -8.8642   10.1202 C   0  0  2  0  0  0  0  0  0  0  0  0
   25.0517   -9.8394   11.2359 C   0  0  0  0  0  0  0  0  0  0  0  0
   24.6776   -6.6876   11.3831 C   0  0  0  0  0  0  0  0  0  0  0  0
   29.0148   -6.4741    8.9162 O   0  0  0  0  0  0  0  0  0  0  0  0
   35.5906   -0.5458   10.9202 O   0  0  0  0  0  0  0  0  0  0  0  0
   35.3384   -1.4707   12.9250 O   0  0  0  0  0  0  0  0  0  0  0  0
  5  6  2  0
 10  9  1  1
 10 11  1  0
 10 12  1  0
 10 13  1  0
 13 14  1  0
  5 15  1  0
 14 15  2  0
 15 16  1  0
  1 16  1  0
  1 17  2  0
 17 18  1  0
  4 18  1  0
  2 18  2  0
  2 19  1  0
  3 19  2  0
  3 20  1  0
  4 21  2  0
  3 21  1  0
 22  7  1  6
  8 22  1  0
  6 22  1  0
 22 23  1  0
  6 24  1  0
 13 24  2  0
 16 25  2  0
 20 26  2  0
 20 27  1  0
M  END
