7RH8_UTP_A_301
     RDKit          3D

 29 30  0  0  0  0  0  0  0  0999 V2000
   -8.0358  -63.9750   14.8300 P   0  0  2  0  0  0  0  0  0  0  0  0
   -8.2736  -62.5603   14.3764 O   0  0  0  0  0  0  0  0  0  0  0  0
   -6.5773  -64.0748   15.7019 O   0  0  0  0  0  0  0  0  0  0  0  0
   -7.9119  -64.9744   13.4962 O   0  0  0  0  0  0  0  0  0  0  0  0
   -9.2734  -64.5157   15.8525 O   0  0  0  0  0  0  0  0  0  0  0  0
   -7.3152  -66.5083   13.8535 P   0  0  2  0  0  0  0  0  0  0  0  0
   -5.6435  -66.5663   13.9639 O   0  0  0  0  0  0  0  0  0  0  0  0
   -7.7556  -67.4243   12.7390 O   0  0  0  0  0  0  0  0  0  0  0  0
   -7.9427  -67.0971   15.3092 O   0  0  0  0  0  0  0  0  0  0  0  0
   -7.0429  -68.3860   15.8949 P   0  0  1  0  0  0  0  0  0  0  0  0
   -7.5162  -68.6926   17.4854 O   0  0  0  0  0  0  0  0  0  0  0  0
   -7.3008  -69.6333   15.0529 O   0  0  0  0  0  0  0  0  0  0  0  0
   -5.4086  -67.9544   15.7876 O   0  0  0  0  0  0  0  0  0  0  0  0
  -10.2629  -65.2239   15.1448 C   0  0  0  0  0  0  0  0  0  0  0  0
  -11.2475  -65.8457   16.1295 C   0  0  1  0  0  0  0  0  0  0  0  0
  -11.2701  -65.1973   17.3334 O   0  0  0  0  0  0  0  0  0  0  0  0
  -12.5934  -65.0086   17.7092 C   0  0  2  0  0  0  0  0  0  0  0  0
  -13.1897  -64.5801   16.3729 C   0  0  2  0  0  0  0  0  0  0  0  0
  -14.5567  -64.5305   16.3725 O   0  0  0  0  0  0  0  0  0  0  0  0
  -12.6156  -65.6940   15.4921 C   0  0  2  0  0  0  0  0  0  0  0  0
  -13.3170  -66.8829   15.7459 O   0  0  0  0  0  0  0  0  0  0  0  0
  -12.6994  -63.9754   18.7057 N   0  0  0  0  0  0  0  0  0  0  0  0
  -11.8167  -62.9595   18.6894 C   0  0  0  0  0  0  0  0  0  0  0  0
  -13.6811  -64.0448   19.6371 C   0  0  0  0  0  0  0  0  0  0  0  0
  -14.4730  -65.0333   19.5854 O   0  0  0  0  0  0  0  0  0  0  0  0
  -13.8171  -63.1085   20.5807 N   0  0  0  0  0  0  0  0  0  0  0  0
  -12.9702  -62.0658   20.6235 C   0  0  0  0  0  0  0  0  0  0  0  0
  -13.0954  -61.1720   21.5196 O   0  0  0  0  0  0  0  0  0  0  0  0
  -11.9586  -61.9900   19.6675 C   0  0  0  0  0  0  0  0  0  0  0  0
  1  2  2  0
  1  3  1  1
  1  4  1  0
  1  5  1  0
  4  6  1  0
  6  7  1  1
  6  8  2  0
  6  9  1  0
  9 10  1  0
 10 11  1  1
 10 12  2  0
 10 13  1  0
  5 14  1  0
 15 14  1  6
 15 16  1  0
 16 17  1  0
 17 18  1  0
 18 19  1  1
 15 20  1  0
 18 20  1  0
 20 21  1  1
 17 22  1  1
 22 23  1  0
 22 24  1  0
 24 25  2  0
 24 26  1  0
 26 27  1  0
 27 28  2  0
 23 29  2  0
 27 29  1  0
M  END
$$$$
