6YYO_Q1K_BBB_323
     RDKit          3D

 19 21  0  0  0  0  0  0  0  0999 V2000
   14.6888   16.8804   22.0827 C   0  0  0  0  0  0  0  0  0  0  0  0
   13.4417   20.8460   24.2248 C   0  0  0  0  0  0  0  0  0  0  0  0
   11.6159   19.2961   24.1020 C   0  0  0  0  0  0  0  0  0  0  0  0
   13.5212   20.4269   22.7538 C   0  0  0  0  0  0  0  0  0  0  0  0
   12.7949   18.3426   23.8660 C   0  0  0  0  0  0  0  0  0  0  0  0
   15.4565   16.1980   21.1443 C   0  0  0  0  0  0  0  0  0  0  0  0
   14.3605   18.2017   21.8980 C   0  0  0  0  0  0  0  0  0  0  0  0
   16.0698   18.6408   18.6943 C   0  0  0  0  0  0  0  0  0  0  0  0
   10.6926   21.9572   23.0280 O   0  0  0  0  0  0  0  0  0  0  0  0
   11.0417   21.8087   24.4806 S   0  0  1  0  0  0  0  0  0  0  0  0
   11.6732   23.0976   24.9196 O   0  0  0  0  0  0  0  0  0  0  0  0
    9.5800   21.5702   25.4592 C   0  0  0  0  0  0  0  0  0  0  0  0
   12.1343   20.4938   24.6890 N   0  0  0  0  0  0  0  0  0  0  0  0
   13.5810   18.9589   22.8141 N   0  0  0  0  0  0  0  0  0  0  0  0
   14.7975   18.8247   20.7883 N   0  0  0  0  0  0  0  0  0  0  0  0
   15.8719   16.9166   20.0175 C   0  0  0  0  0  0  0  0  0  0  0  0
   16.6054   16.5722   18.9460 N   0  0  0  0  0  0  0  0  0  0  0  0
   16.7378   17.6089   18.1271 N   0  0  0  0  0  0  0  0  0  0  0  0
   15.5318   18.2093   19.8695 N   0  0  0  0  0  0  0  0  0  0  0  0
  2  4  1  0
  3  5  1  0
  1  6  2  0
  1  7  1  0
  9 10  2  0
 10 11  2  0
 10 12  1  1
  2 13  1  0
 10 13  1  0
  3 13  1  0
  4 14  1  0
  7 14  1  0
  5 14  1  0
  7 15  2  0
  6 16  1  0
 16 17  2  0
  8 18  2  0
 17 18  1  0
  8 19  1  0
 15 19  1  0
 16 19  1  0
M  END
$$$$
