6VS3_R6V_B_1201
     RDKit          3D

 68 73  0  0  0  0  0  0  0  0999 V2000
   53.6792  -15.6446    9.5495 C   0  0  0  0  0  0  0  0  0  0  0  0
   53.2127  -18.1304    9.6618 C   0  0  0  0  0  0  0  0  0  0  0  0
   53.3889  -19.2945   11.7520 C   0  0  0  0  0  0  0  0  0  0  0  0
   53.4028  -17.2083   14.5066 C   0  0  0  0  0  0  0  0  0  0  0  0
   53.9396  -16.0450   15.0657 C   0  0  0  0  0  0  0  0  0  0  0  0
   55.3118  -15.7494   14.9444 C   0  0  0  0  0  0  0  0  0  0  0  0
   56.4828  -13.5433   14.4950 C   0  0  2  0  0  0  0  0  0  0  0  0
   54.8219  -13.6720   16.4474 C   0  0  2  0  0  0  0  0  0  0  0  0
   56.3532  -14.4587    7.8728 C   0  0  0  0  0  0  0  0  0  0  0  0
   55.8046  -13.1772    8.3326 C   0  0  1  0  0  0  0  0  0  0  0  0
   54.3313  -13.3374    8.7771 C   0  0  2  0  0  0  0  0  0  0  0  0
   54.0338  -12.8461   10.2283 C   0  0  1  0  0  0  0  0  0  0  0  0
   54.7071  -13.6342   11.3707 C   0  0  2  0  0  0  0  0  0  0  0  0
   55.3697  -12.6116   12.2879 C   0  0  2  0  0  0  0  0  0  0  0  0
   54.7955  -11.2606   11.9070 C   0  0  2  0  0  0  0  0  0  0  0  0
   54.4161  -11.3777   10.4427 C   0  0  1  0  0  0  0  0  0  0  0  0
   53.4601  -16.5945    7.5876 C   0  0  0  0  0  0  0  0  0  0  0  0
   53.3812  -16.8491    8.9473 C   0  0  0  0  0  0  0  0  0  0  0  0
   54.2238  -18.1001   13.8076 C   0  0  0  0  0  0  0  0  0  0  0  0
   55.8296  -14.4504   15.5562 C   0  0  1  0  0  0  0  0  0  0  0  0
   55.4517  -12.6570   13.8012 C   0  0  2  0  0  0  0  0  0  0  0  0
   53.9635  -12.6394   15.6879 C   0  0  1  0  0  0  0  0  0  0  0  0
   56.1401  -16.6814   14.2899 C   0  0  0  0  0  0  0  0  0  0  0  0
   55.6028  -17.8467   13.7371 C   0  0  0  0  0  0  0  0  0  0  0  0
   52.7258  -20.4648    9.8387 C   0  0  0  0  0  0  0  0  0  0  0  0
   52.8067  -19.3335    9.0733 C   0  0  0  0  0  0  0  0  0  0  0  0
   52.3677  -19.6812    7.8085 C   0  0  0  0  0  0  0  0  0  0  0  0
   52.0585  -21.0367    7.8848 C   0  0  0  0  0  0  0  0  0  0  0  0
   56.7851  -15.4693    7.5104 N   0  0  0  0  0  0  0  0  0  0  0  0
   53.8927  -14.7268    8.5875 N   0  0  0  0  0  0  0  0  0  0  0  0
   53.7743  -15.2973    7.3983 N   0  0  0  0  0  0  0  0  0  0  0  0
   53.4758  -18.1556   10.9993 N   0  0  0  0  0  0  0  0  0  0  0  0
   53.6434  -19.2477   13.1639 N   0  0  0  0  0  0  0  0  0  0  0  0
   54.7833  -11.8138   14.7956 N   0  0  0  0  0  0  0  0  0  0  0  0
   53.0048  -20.4668   11.1657 N   0  0  0  0  0  0  0  0  0  0  0  0
   52.2806  -21.5125    9.1302 N   0  0  0  0  0  0  0  0  0  0  0  0
   53.7778  -15.4722   10.6121 H   0  0  0  0  0  0  0  0  0  0  0  0
   52.3400  -17.3983   14.5884 H   0  0  0  0  0  0  0  0  0  0  0  0
   53.2782  -15.3605   15.5823 H   0  0  0  0  0  0  0  0  0  0  0  0
   57.0259  -14.1487   13.7357 H   0  0  0  0  0  0  0  0  0  0  0  0
   57.2317  -12.8871   14.9916 H   0  0  0  0  0  0  0  0  0  0  0  0
   55.4018  -13.1158   17.2174 H   0  0  0  0  0  0  0  0  0  0  0  0
   54.1619  -14.3773   16.9968 H   0  0  0  0  0  0  0  0  0  0  0  0
   56.4359  -12.8235    9.1738 H   0  0  0  0  0  0  0  0  0  0  0  0
   55.8926  -12.4478    7.5014 H   0  0  0  0  0  0  0  0  0  0  0  0
   53.7094  -12.6976    8.1081 H   0  0  0  0  0  0  0  0  0  0  0  0
   52.9305  -12.9102   10.3804 H   0  0  0  0  0  0  0  0  0  0  0  0
   55.4661  -14.3632   11.0274 H   0  0  0  0  0  0  0  0  0  0  0  0
   53.9356  -14.1981   11.9407 H   0  0  0  0  0  0  0  0  0  0  0  0
   56.4681  -12.6097   12.1154 H   0  0  0  0  0  0  0  0  0  0  0  0
   55.1759  -12.8413   13.3574 H   0  0  0  0  0  0  0  0  0  0  0  0
   55.5336  -10.4465   12.0727 H   0  0  0  0  0  0  0  0  0  0  0  0
   53.8820  -11.0581   12.5104 H   0  0  0  0  0  0  0  0  0  0  0  0
   55.2882  -11.0878    9.8170 H   0  0  0  0  0  0  0  0  0  0  0  0
   53.5665  -10.7008   10.1996 H   0  0  0  0  0  0  0  0  0  0  0  0
   53.3717  -17.3059    6.7817 H   0  0  0  0  0  0  0  0  0  0  0  0
   56.6492  -14.7551   16.2469 H   0  0  0  0  0  0  0  0  0  0  0  0
   54.7150  -13.2779   13.2411 H   0  0  0  0  0  0  0  0  0  0  0  0
   55.9775  -12.0067   13.0675 H   0  0  0  0  0  0  0  0  0  0  0  0
   53.1423  -13.1184   15.1182 H   0  0  0  0  0  0  0  0  0  0  0  0
   53.4744  -11.9771   16.4351 H   0  0  0  0  0  0  0  0  0  0  0  0
   57.1958  -16.5178   14.1740 H   0  0  0  0  0  0  0  0  0  0  0  0
   56.2666  -18.5485   13.2483 H   0  0  0  0  0  0  0  0  0  0  0  0
   52.2271  -19.0483    6.9465 H   0  0  0  0  0  0  0  0  0  0  0  0
   51.6659  -21.6336    7.0723 H   0  0  0  0  0  0  0  0  0  0  0  0
   53.2117  -19.9880   13.7623 H   0  0  0  0  0  0  0  0  0  0  0  0
   54.1410  -11.1660   14.2813 H   0  0  0  0  0  0  0  0  0  0  0  0
   52.1086  -22.4831    9.4745 H   0  0  0  0  0  0  0  0  0  0  0  0
  4  5  2  0
  5  6  1  0
  9 10  1  0
 11 10  1  0
 11 12  1  0
 12 13  1  0
 13 14  1  0
 14 15  1  0
 15 16  1  0
 12 16  1  0
 17 18  1  0
  1 18  2  0
  2 18  1  0
  4 19  1  0
  8 20  1  0
  6 20  1  0
  7 20  1  0
  7 21  1  0
  8 22  1  0
  6 23  2  0
 23 24  1  0
 19 24  2  0
  2 26  2  0
 25 26  1  0
 26 27  1  0
 27 28  2  0
  9 29  3  0
 11 30  1  0
  1 30  1  0
 30 31  1  0
 17 31  2  0
  2 32  1  0
  3 32  2  0
 19 33  1  0
  3 33  1  0
 22 34  1  0
 21 34  1  0
  3 35  1  0
 25 35  2  0
 28 36  1  0
 25 36  1  0
  1 37  1  0
  4 38  1  0
  5 39  1  0
  7 40  1  6
  7 41  1  0
  8 42  1  1
  8 43  1  0
 10 44  1  1
 10 45  1  0
 11 46  1  6
 12 47  1  1
 13 48  1  6
 13 49  1  0
 14 50  1  1
 14 51  1  0
 15 52  1  6
 15 53  1  0
 16 54  1  6
 16 55  1  0
 17 56  1  0
 20 57  1  1
 21 58  1  6
 21 59  1  0
 22 60  1  6
 22 61  1  0
 23 62  1  0
 24 63  1  0
 27 64  1  0
 28 65  1  0
 33 66  1  0
 34 67  1  0
 36 68  1  0
M  END
