1UNL_RRC_A_1293
     RDKit          3D

 26 28  0  0  0  0  0  0  0  0999 V2000
   56.8076   23.6657   31.8522 O   0  0  0  0  0  0  0  0  0  0  0  0
   57.3414   23.2433   30.6270 C   0  0  0  0  0  0  0  0  0  0  0  0
   57.1624   24.3155   29.6016 C   0  0  1  0  0  0  0  0  0  0  0  0
   55.7215   24.5247   29.2152 C   0  0  0  0  0  0  0  0  0  0  0  0
   55.2666   23.3093   28.4376 C   0  0  0  0  0  0  0  0  0  0  0  0
   57.6909   25.5495   30.1008 N   0  0  0  0  0  0  0  0  0  0  0  0
   58.1137   26.6336   29.2506 C   0  0  0  0  0  0  0  0  0  0  0  0
   58.5735   27.7947   29.7993 N   0  0  0  0  0  0  0  0  0  0  0  0
   58.9766   28.8445   29.0660 C   0  0  0  0  0  0  0  0  0  0  0  0
   59.4591   30.0693   29.3500 N   0  0  0  0  0  0  0  0  0  0  0  0
   59.6899   30.6228   30.6713 C   0  0  1  0  0  0  0  0  0  0  0  0
   61.1719   30.8450   30.8609 C   0  0  0  0  0  0  0  0  0  0  0  0
   58.8927   31.8815   30.8441 C   0  0  0  0  0  0  0  0  0  0  0  0
   59.7052   30.7279   28.1947 C   0  0  0  0  0  0  0  0  0  0  0  0
   58.9314   28.7646   27.6917 C   0  0  0  0  0  0  0  0  0  0  0  0
   59.3790   29.9223   27.1443 N   0  0  0  0  0  0  0  0  0  0  0  0
   58.0677   26.5507   27.9112 N   0  0  0  0  0  0  0  0  0  0  0  0
   58.4643   27.5844   27.1516 C   0  0  0  0  0  0  0  0  0  0  0  0
   58.3930   27.4425   25.7247 N   0  0  0  0  0  0  0  0  0  0  0  0
   57.9765   26.1739   25.1155 C   0  0  0  0  0  0  0  0  0  0  0  0
   58.8754   25.1046   25.6296 C   0  0  0  0  0  0  0  0  0  0  0  0
   58.4039   23.9510   26.2183 C   0  0  0  0  0  0  0  0  0  0  0  0
   59.2878   22.9948   26.6743 C   0  0  0  0  0  0  0  0  0  0  0  0
   60.6547   23.1726   26.5510 C   0  0  0  0  0  0  0  0  0  0  0  0
   61.1512   24.3256   25.9620 C   0  0  0  0  0  0  0  0  0  0  0  0
   60.2567   25.2754   25.5095 C   0  0  0  0  0  0  0  0  0  0  0  0
  1  2  1  0
  3  2  1  1
  3  4  1  0
  4  5  1  0
  3  6  1  0
  6  7  1  0
  7  8  2  0
  8  9  1  0
  9 10  1  0
 10 11  1  0
 11 12  1  6
 11 13  1  0
 10 14  1  0
  9 15  2  0
 14 16  2  0
 15 16  1  0
  7 17  1  0
 15 18  1  0
 17 18  2  0
 18 19  1  0
 19 20  1  0
 20 21  1  0
 21 22  2  0
 22 23  1  0
 23 24  2  0
 24 25  1  0
 21 26  1  0
 25 26  2  0
M  END
$$$$
