1UNL_RRC_A_1293
     RDKit          3D

 26 28  0  0  0  0  0  0  0  0999 V2000
   60.1146    7.8815   24.5309 O   0  0  0  0  0  0  0  0  0  0  0  0
   59.7902    7.6299   23.1908 C   0  0  0  0  0  0  0  0  0  0  0  0
   58.3728    7.1669   23.0925 C   0  0  1  0  0  0  0  0  0  0  0  0
   58.1255    5.8719   23.8214 C   0  0  0  0  0  0  0  0  0  0  0  0
   56.6995    5.4478   23.5468 C   0  0  0  0  0  0  0  0  0  0  0  0
   57.5022    8.1712   23.6263 N   0  0  0  0  0  0  0  0  0  0  0  0
   56.5102    8.8608   22.8406 C   0  0  0  0  0  0  0  0  0  0  0  0
   55.6759    9.7640   23.4311 N   0  0  0  0  0  0  0  0  0  0  0  0
   54.7271   10.4358   22.7596 C   0  0  0  0  0  0  0  0  0  0  0  0
   53.8005   11.3544   23.0934 N   0  0  0  0  0  0  0  0  0  0  0  0
   53.5706   11.9105   24.4137 C   0  0  1  0  0  0  0  0  0  0  0  0
   53.8468   13.3952   24.3783 C   0  0  0  0  0  0  0  0  0  0  0  0
   52.1752   11.5955   24.8647 C   0  0  0  0  0  0  0  0  0  0  0  0
   53.0954   11.6941   21.9904 C   0  0  0  0  0  0  0  0  0  0  0  0
   54.5731   10.2162   21.4086 C   0  0  0  0  0  0  0  0  0  0  0  0
   53.5683   10.9881   20.9242 N   0  0  0  0  0  0  0  0  0  0  0  0
   56.3641    8.6432   21.5237 N   0  0  0  0  0  0  0  0  0  0  0  0
   55.4240    9.3003   20.8257 C   0  0  0  0  0  0  0  0  0  0  0  0
   55.3105    9.0284   19.4206 N   0  0  0  0  0  0  0  0  0  0  0  0
   56.2032    8.0641   18.7671 C   0  0  0  0  0  0  0  0  0  0  0  0
   55.6744    6.6989   19.0358 C   0  0  0  0  0  0  0  0  0  0  0  0
   56.3452    5.7764   19.8097 C   0  0  0  0  0  0  0  0  0  0  0  0
   55.8023    4.5263   20.0240 C   0  0  0  0  0  0  0  0  0  0  0  0
   54.5831    4.1755   19.4711 C   0  0  0  0  0  0  0  0  0  0  0  0
   53.8908    5.0877   18.6892 C   0  0  0  0  0  0  0  0  0  0  0  0
   54.4443    6.3358   18.4819 C   0  0  0  0  0  0  0  0  0  0  0  0
  1  2  1  0
  3  2  1  1
  3  4  1  0
  4  5  1  0
  3  6  1  0
  6  7  1  0
  7  8  2  0
  8  9  1  0
  9 10  1  0
 10 11  1  0
 11 12  1  6
 11 13  1  0
 10 14  1  0
  9 15  2  0
 14 16  2  0
 15 16  1  0
  7 17  1  0
 15 18  1  0
 17 18  2  0
 18 19  1  0
 19 20  1  0
 20 21  1  0
 21 22  2  0
 22 23  1  0
 23 24  2  0
 24 25  1  0
 21 26  1  0
 25 26  2  0
M  END
$$$$
