
     RDKit          3D

 13 12  0  0  0  0  0  0  0  0999 V2000
  -22.1064    3.4349   -2.9490 C   0  0  0  0  0  0  0  0  0  0  0  0
  -21.0288    3.9001   -3.9287 C   0  0  1  0  0  0  0  0  0  0  0  0
  -20.0277    4.8461   -3.2547 C   0  0  1  0  0  0  0  0  0  0  0  0
  -19.3100    5.8472   -4.1903 C   0  0  2  0  0  0  0  0  0  0  0  0
  -18.1215    6.5982   -3.5623 C   0  0  1  0  0  0  0  0  0  0  0  0
  -17.5794    7.7144   -4.4682 C   0  0  0  0  0  0  0  0  0  0  0  0
  -22.9797    4.1130   -2.4375 O   0  0  0  0  0  0  0  0  0  0  0  0
  -22.0446    2.1004   -2.7283 O   0  0  0  0  0  0  0  0  0  0  0  0
  -20.3169    2.8427   -4.5793 O   0  0  0  0  0  0  0  0  0  0  0  0
  -20.7374    5.6672   -2.2871 O   0  0  0  0  0  0  0  0  0  0  0  0
  -20.3064    6.7947   -4.6474 O   0  0  0  0  0  0  0  0  0  0  0  0
  -18.5235    7.1820   -2.3182 O   0  0  0  0  0  0  0  0  0  0  0  0
  -18.3472    8.9088   -4.3028 O   0  0  0  0  0  0  0  0  0  0  0  0
  1  2  1  0
  2  3  1  0
  3  4  1  0
  4  5  1  0
  5  6  1  0
  1  7  2  0
  1  8  1  0
  2  9  1  1
  3 10  1  1
  4 11  1  1
  5 12  1  1
  6 13  1  0
M  END
