6Y7L_QMG_A_301
     RDKit          3D

 25 28  0  0  0  0  0  0  0  0999 V2000
  123.1794   -5.7687   39.7035 C   0  0  0  0  0  0  0  0  0  0  0  0
  127.3899   -5.6721   35.2716 C   0  0  0  0  0  0  0  0  0  0  0  0
  128.6855   -3.7118   34.8681 C   0  0  0  0  0  0  0  0  0  0  0  0
  131.6451   -1.2650   37.2391 C   0  0  0  0  0  0  0  0  0  0  0  0
  131.6619    0.1100   37.3383 C   0  0  0  0  0  0  0  0  0  0  0  0
  127.8125    1.9986   36.0624 C   0  0  0  0  0  0  0  0  0  0  0  0
  128.2044    0.5934   36.1101 C   0  0  0  0  0  0  0  0  0  0  0  0
  127.4116   -0.4929   35.7476 C   0  0  0  0  0  0  0  0  0  0  0  0
  128.1946   -1.6091   35.9576 C   0  0  0  0  0  0  0  0  0  0  0  0
  127.8809   -3.0180   35.7478 C   0  0  0  0  0  0  0  0  0  0  0  0
  126.8356   -3.6590   36.3829 C   0  0  0  0  0  0  0  0  0  0  0  0
  126.5852   -4.9786   36.1513 C   0  0  0  0  0  0  0  0  0  0  0  0
  125.4985   -5.7207   36.7867 C   0  0  0  0  0  0  0  0  0  0  0  0
  123.5177   -5.9156   38.2868 C   0  0  1  0  0  0  0  0  0  0  0  0
  122.1886   -5.3294   38.6040 C   0  0  0  0  0  0  0  0  0  0  0  0
  128.4549   -5.0490   34.6146 C   0  0  0  0  0  0  0  0  0  0  0  0
  129.8165   -3.0243   34.1789 C   0  0  0  0  0  0  0  0  0  0  0  0
  129.4401   -1.2015   36.4393 C   0  0  0  0  0  0  0  0  0  0  0  0
  130.5179    0.7967   36.9676 C   0  0  0  0  0  0  0  0  0  0  0  0
  126.4197    2.3837   35.7097 C   0  0  0  0  0  0  0  0  0  0  0  0
  124.5671   -5.1120   37.6745 N   0  0  0  0  0  0  0  0  0  0  0  0
  130.5407   -1.8672   36.7956 N   0  0  0  0  0  0  0  0  0  0  0  0
  129.4074    0.1507   36.5189 N   0  0  0  0  0  0  0  0  0  0  0  0
  128.6101    2.9441   36.3106 O   0  0  0  0  0  0  0  0  0  0  0  0
  125.3961   -6.9496   36.5270 O   0  0  0  0  0  0  0  0  0  0  0  0
  4  5  1  0
  6  7  1  0
  7  8  2  0
  8  9  1  0
  9 10  1  0
  3 10  1  0
 10 11  2  0
 11 12  1  0
  2 12  2  0
 12 13  1  0
  1 14  1  6
 14 15  1  0
 15  1  1  1
  3 16  2  0
  2 16  1  0
 17  3  1  1
  9 18  2  0
  5 19  2  0
 20  6  1  1
 14 21  1  1
 13 21  1  0
  4 22  2  0
 18 22  1  0
 19 23  1  0
 18 23  1  0
  7 23  1  0
  6 24  2  0
 13 25  2  0
M  END
$$$$
