7TS6_KMI_A_803
     RDKit          3D

 17 18  0  0  0  0  0  0  0  0999 V2000
   12.0683   -2.3848  -46.0227 C   0  0  0  0  0  0  0  0  0  0  0  0
   10.9782   -2.3520  -43.8525 C   0  0  0  0  0  0  0  0  0  0  0  0
   11.0380   -1.9759  -45.1780 C   0  0  0  0  0  0  0  0  0  0  0  0
   13.0493   -3.1941  -45.4862 C   0  0  0  0  0  0  0  0  0  0  0  0
    8.9229   -1.5489  -40.9023 C   0  0  0  0  0  0  0  0  0  0  0  0
    7.7982   -0.9807  -41.4481 C   0  0  0  0  0  0  0  0  0  0  0  0
    7.6837   -0.8448  -42.8120 C   0  0  0  0  0  0  0  0  0  0  0  0
    8.7274   -1.2937  -43.6217 C   0  0  0  0  0  0  0  0  0  0  0  0
    9.8532   -1.8630  -43.0659 C   0  0  0  0  0  0  0  0  0  0  0  0
    6.4758   -0.2320  -43.4392 C   0  0  0  0  0  0  0  0  0  0  0  0
   13.0164   -3.5917  -44.1485 C   0  0  0  0  0  0  0  0  0  0  0  0
   11.9704   -3.1571  -43.3532 C   0  0  0  0  0  0  0  0  0  0  0  0
   14.1059   -4.4697  -43.6190 C   0  0  0  0  0  0  0  0  0  0  0  0
   16.2128   -4.6395  -42.6138 C   0  0  0  0  0  0  0  0  0  0  0  0
    9.9147   -1.9717  -41.7343 N   0  0  0  0  0  0  0  0  0  0  0  0
    9.1055   -1.7198  -39.4954 N   0  0  0  0  0  0  0  0  0  0  0  0
   15.1955   -3.7141  -43.0785 N   0  0  0  0  0  0  0  0  0  0  0  0
  2  3  1  0
  1  3  2  0
  1  4  1  0
  5  6  2  0
  6  7  1  0
  7  8  2  0
  8  9  1  0
  2  9  1  0
 10  7  1  6
  4 11  2  0
  2 12  2  0
 11 12  1  0
 11 13  1  0
  9 15  2  0
  5 15  1  0
  5 16  1  0
 13 17  1  6
 14 17  1  6
M  END
$$$$
