5SIS_JSM_A_803
     RDKit          3D

 57 60  0  0  0  0  0  0  0  0999 V2000
   28.0080  107.7548   57.6346 C   0  0  0  0  0  0  0  0  0  0  0  0
   28.9125  107.6219   59.8991 C   0  0  0  0  0  0  0  0  0  0  0  0
   30.0798  107.8133   60.6513 C   0  0  0  0  0  0  0  0  0  0  0  0
   27.9105  108.1652   55.0980 C   0  0  0  0  0  0  0  0  0  0  0  0
   36.6823  109.0921   59.4285 C   0  0  2  0  0  0  0  0  0  0  0  0
   33.2920  105.6186   63.0496 C   0  0  1  0  0  0  0  0  0  0  0  0
   33.9946  106.4047   65.3501 C   0  0  1  0  0  0  0  0  0  0  0  0
   28.6308  108.5754   53.9598 C   0  0  0  0  0  0  0  0  0  0  0  0
   26.5558  107.8068   54.9505 C   0  0  0  0  0  0  0  0  0  0  0  0
   33.2125  106.1099   61.6020 C   0  0  1  0  0  0  0  0  0  0  0  0
   34.9406  108.5091   62.5678 C   0  0  0  0  0  0  0  0  0  0  0  0
   34.9474  108.6113   61.1858 C   0  0  0  0  0  0  0  0  0  0  0  0
   30.0747  108.2591   57.9269 C   0  0  0  0  0  0  0  0  0  0  0  0
   29.8893  108.4387   56.6046 N   0  0  0  0  0  0  0  0  0  0  0  0
   33.7913  108.4478   60.2792 C   0  0  0  0  0  0  0  0  0  0  0  0
   28.9672  107.8521   58.5644 N   0  0  0  0  0  0  0  0  0  0  0  0
   33.8387  108.0491   63.4336 C   0  0  0  0  0  0  0  0  0  0  0  0
   28.5827  108.1185   56.4198 C   0  0  0  0  0  0  0  0  0  0  0  0
   31.2651  108.4669   58.6197 C   0  0  0  0  0  0  0  0  0  0  0  0
   36.2081  108.8999   60.7947 N   0  0  0  0  0  0  0  0  0  0  0  0
   37.0003  108.9687   61.8533 N   0  0  0  0  0  0  0  0  0  0  0  0
   36.2509  108.7339   62.9483 C   0  0  0  0  0  0  0  0  0  0  0  0
   31.2726  108.2202   60.0110 C   0  0  0  0  0  0  0  0  0  0  0  0
   32.4514  108.4357   60.8041 N   0  0  0  0  0  0  0  0  0  0  0  0
   33.7698  106.6936   63.9297 N   0  0  0  0  0  0  0  0  0  0  0  0
   33.9964  108.3014   59.0447 O   0  0  0  0  0  0  0  0  0  0  0  0
   32.9515  108.8835   63.7625 O   0  0  0  0  0  0  0  0  0  0  0  0
   33.1557  107.5752   61.5685 N   0  0  0  0  0  0  0  0  0  0  0  0
   34.0768  108.0937   60.5564 C   0  0  2  0  0  0  0  0  0  0  0  0
   25.9418  107.8595   53.6951 C   0  0  0  0  0  0  0  0  0  0  0  0
   28.0113  108.6257   52.7074 C   0  0  0  0  0  0  0  0  0  0  0  0
   26.6683  108.2683   52.5751 C   0  0  0  0  0  0  0  0  0  0  0  0
   26.9888  107.4491   57.8300 H   0  0  0  0  0  0  0  0  0  0  0  0
   27.9926  107.3028   60.3730 H   0  0  0  0  0  0  0  0  0  0  0  0
   30.0628  107.6393   61.7196 H   0  0  0  0  0  0  0  0  0  0  0  0
   37.6961  108.6539   59.3193 H   0  0  0  0  0  0  0  0  0  0  0  0
   36.7331  110.1753   59.1896 H   0  0  0  0  0  0  0  0  0  0  0  0
   35.9867  108.6057   58.7130 H   0  0  0  0  0  0  0  0  0  0  0  0
   32.2878  105.2712   63.3775 H   0  0  0  0  0  0  0  0  0  0  0  0
   33.9718  104.7415   63.1185 H   0  0  0  0  0  0  0  0  0  0  0  0
   33.6972  105.3644   65.6014 H   0  0  0  0  0  0  0  0  0  0  0  0
   35.0691  106.5221   65.5954 H   0  0  0  0  0  0  0  0  0  0  0  0
   33.3884  107.0913   65.9788 H   0  0  0  0  0  0  0  0  0  0  0  0
   29.6738  108.8571   54.0361 H   0  0  0  0  0  0  0  0  0  0  0  0
   25.9649  107.4880   55.7972 H   0  0  0  0  0  0  0  0  0  0  0  0
   34.1149  105.7534   61.0587 H   0  0  0  0  0  0  0  0  0  0  0  0
   32.3110  105.6799   61.1128 H   0  0  0  0  0  0  0  0  0  0  0  0
   32.1384  108.8349   58.0985 H   0  0  0  0  0  0  0  0  0  0  0  0
   36.6497  108.6745   63.9515 H   0  0  0  0  0  0  0  0  0  0  0  0
   32.3211  108.5203   61.8366 H   0  0  0  0  0  0  0  0  0  0  0  0
   32.1886  107.8581   61.2824 H   0  0  0  0  0  0  0  0  0  0  0  0
   34.2737  107.3315   59.7704 H   0  0  0  0  0  0  0  0  0  0  0  0
   35.0347  108.4017   61.0276 H   0  0  0  0  0  0  0  0  0  0  0  0
   33.6281  108.9877   60.0745 H   0  0  0  0  0  0  0  0  0  0  0  0
   24.9004  107.5830   53.5910 H   0  0  0  0  0  0  0  0  0  0  0  0
   28.5739  108.9421   51.8383 H   0  0  0  0  0  0  0  0  0  0  0  0
   26.1905  108.3082   51.6047 H   0  0  0  0  0  0  0  0  0  0  0  0
  2  3  2  0
  4  8  2  0
  4  9  1  0
  6 10  1  0
 11 12  2  0
 13 14  2  0
 12 15  1  0
 13 16  1  0
  1 16  1  0
  2 16  1  0
 11 17  1  0
 14 18  1  0
  1 18  2  0
  4 18  1  0
 13 19  1  0
 12 20  1  0
  5 20  1  0
 20 21  1  0
 11 22  1  0
 21 22  2  0
 19 23  2  0
  3 23  1  0
 15 24  1  0
 23 24  1  0
 17 25  1  0
  7 25  1  0
  6 25  1  0
 15 26  2  0
 17 27  2  0
 10 28  1  0
 28 29  1  0
  9 30  2  0
  8 31  1  0
 30 32  1  0
 31 32  2  0
  1 33  1  0
  2 34  1  0
  3 35  1  0
  5 36  1  1
  5 37  1  0
  5 38  1  0
  6 39  1  1
  6 40  1  0
  7 41  1  6
  7 42  1  0
  7 43  1  0
  8 44  1  0
  9 45  1  0
 10 46  1  6
 10 47  1  0
 19 48  1  0
 22 49  1  0
 24 50  1  0
 28 51  1  0
 29 52  1  6
 29 53  1  0
 29 54  1  0
 30 55  1  0
 31 56  1  0
 32 57  1  0
M  END
