7LEV_0JO_B_406
     RDKit          3D

 21 21  0  0  0  0  0  0  0  0999 V2000
   10.4780    0.9190   25.1350 O   0  0  0  0  0  0  0  0  0  0  0  0
    9.3660    0.3770   24.9020 C   0  0  0  0  0  0  0  0  0  0  0  0
    8.5220    0.2500   25.8280 O   0  0  0  0  0  0  0  0  0  0  0  0
    9.0410   -0.1280   23.4970 C   0  0  0  0  0  0  0  0  0  0  0  0
    9.8040    0.2200   22.4800 C   0  0  0  0  0  0  0  0  0  0  0  0
    7.8930   -0.9900   23.2820 N   0  0  0  0  0  0  0  0  0  0  0  0
    7.5320   -1.2700   22.1180 C   0  0  0  0  0  0  0  0  0  0  0  0
    6.3240   -2.1760   21.8890 C   0  0  0  0  0  0  0  0  0  0  0  0
    5.3570   -2.2690   22.8350 C   0  0  0  0  0  0  0  0  0  0  0  0
    5.4640   -1.5340   24.0230 O   0  0  0  0  0  0  0  0  0  0  0  0
    4.2620   -3.0910   22.6270 C   0  0  0  0  0  0  0  0  0  0  0  0
    3.1730   -3.1960   23.6920 C   0  0  0  0  0  0  0  0  0  0  0  0
    4.1570   -3.8010   21.4810 N   0  0  0  0  0  0  0  0  0  0  0  0
    5.1210   -3.7100   20.5360 C   0  0  0  0  0  0  0  0  0  0  0  0
    6.2180   -2.8880   20.7410 C   0  0  0  0  0  0  0  0  0  0  0  0
    7.3060   -2.7850   19.6720 C   0  0  0  0  0  0  0  0  0  0  0  0
    8.4660   -3.4210   20.1250 O   0  0  0  0  0  0  0  0  0  0  0  0
    8.8750   -4.8740   19.4610 P   0  0  0  0  0  0  0  0  0  0  0  0
   10.2670   -5.2550   19.9050 O   0  0  0  0  0  0  0  0  0  0  0  0
    7.8960   -5.9290   19.9160 O   0  0  0  0  0  0  0  0  0  0  0  0
    8.8380   -4.7690   17.9540 O   0  0  0  0  0  0  0  0  0  0  0  0
  1  2  2  0
  2  3  1  0
  2  4  1  0
  4  5  2  0
  4  6  1  0
  6  7  2  0
  7  8  1  0
  8  9  2  0
  9 10  1  0
  9 11  1  0
 11 12  1  0
 11 13  2  0
 13 14  1  0
  8 15  1  0
 14 15  2  0
 15 16  1  0
 16 17  1  0
 17 18  1  0
 18 19  2  0
 18 20  1  0
 18 21  1  0
M  END
$$$$
