1JLA_TNK_A_999
     RDKit          3D

 51 53  0  0  0  0  0  0  0  0999 V2000
   -0.6106   -6.1755   -1.9074 C   0  0  0  0  0  0  0  0  0  0  0  0
   -1.1459   -7.3154   -1.2827 C   0  0  0  0  0  0  0  0  0  0  0  0
   -1.1032   -8.5607   -1.9161 C   0  0  0  0  0  0  0  0  0  0  0  0
   -0.5196   -8.6847   -3.1782 C   0  0  0  0  0  0  0  0  0  0  0  0
    0.0245   -7.5638   -3.8082 C   0  0  0  0  0  0  0  0  0  0  0  0
   -0.0152   -6.3157   -3.1797 C   0  0  0  0  0  0  0  0  0  0  0  0
    0.6790   -4.2128   -0.8740 C   0  0  0  0  0  0  0  0  0  0  0  0
    0.9428   -3.7072    0.3913 N   0  0  0  0  0  4  0  0  0  0  0  0
    2.1272   -3.0626    0.6415 C   0  0  0  0  0  0  0  0  0  0  0  0
    2.3731   -2.5906    1.7873 O   0  0  0  0  0  0  0  0  0  0  0  0
    3.0527   -2.9161   -0.3322 N   0  0  0  0  0  4  0  0  0  0  0  0
    2.8691   -3.4246   -1.5704 C   0  0  0  0  0  0  0  0  0  0  0  0
    3.7716   -3.2467   -2.4344 O   0  0  0  0  0  0  0  0  0  0  0  0
    1.6912   -4.1349   -1.8889 C   0  0  0  0  0  0  0  0  0  0  0  0
   -0.6750   -4.8538   -1.1655 C   0  0  0  0  0  0  0  0  0  0  0  0
    1.5743   -4.7186   -3.3132 C   0  0  2  0  0  0  0  0  0  0  0  0
    0.5808   -5.8862   -3.3825 C   0  0  0  0  0  0  0  0  0  0  0  0
    2.9100   -5.0260   -4.0115 C   0  0  0  0  0  0  0  0  0  0  0  0
   -0.0029   -3.8388    1.5286 C   0  0  0  0  0  0  0  0  0  0  0  0
    0.3532   -4.9286    2.3577 O   0  0  0  0  0  0  0  0  0  0  0  0
    1.6623   -5.3635    2.0624 C   0  0  0  0  0  0  0  0  0  0  0  0
    2.1310   -4.6690    0.8172 C   0  0  0  0  0  0  0  0  0  0  0  0
    2.5437   -3.3269    0.8635 C   0  0  0  0  0  0  0  0  0  0  0  0
    3.0154   -2.6954   -0.2919 C   0  0  0  0  0  0  0  0  0  0  0  0
    3.0900   -3.4017   -1.4957 C   0  0  0  0  0  0  0  0  0  0  0  0
    2.6979   -4.7424   -1.5451 C   0  0  0  0  0  0  0  0  0  0  0  0
    2.2256   -5.3775   -0.3922 C   0  0  0  0  0  0  0  0  0  0  0  0
   -1.6000   -7.2380   -0.3024 H   0  0  0  0  0  0  0  0  0  0  0  0
   -1.5221   -9.4306   -1.4269 H   0  0  0  0  0  0  0  0  0  0  0  0
   -0.4872   -9.6496   -3.6673 H   0  0  0  0  0  0  0  0  0  0  0  0
    0.4786   -7.6619   -4.7858 H   0  0  0  0  0  0  0  0  0  0  0  0
    0.4148   -5.4694   -3.6971 H   0  0  0  0  0  0  0  0  0  0  0  0
    3.9396   -2.4036   -0.1183 H   0  0  0  0  0  0  0  0  0  0  0  0
   -1.2439   -4.9954   -0.2271 H   0  0  0  0  0  0  0  0  0  0  0  0
   -1.3337   -4.1629   -1.7095 H   0  0  0  0  0  0  0  0  0  0  0  0
    1.1348   -3.9376   -3.9711 H   0  0  0  0  0  0  0  0  0  0  0  0
    0.4555   -6.2147   -4.4365 H   0  0  0  0  0  0  0  0  0  0  0  0
   -0.4111   -5.5568   -3.0057 H   0  0  0  0  0  0  0  0  0  0  0  0
    0.9031   -6.7584   -2.7842 H   0  0  0  0  0  0  0  0  0  0  0  0
    3.2788   -6.0482   -3.8039 H   0  0  0  0  0  0  0  0  0  0  0  0
    3.6786   -4.2768   -3.7278 H   0  0  0  0  0  0  0  0  0  0  0  0
    2.7767   -4.9670   -5.1135 H   0  0  0  0  0  0  0  0  0  0  0  0
   -1.0151   -4.0463    1.1189 H   0  0  0  0  0  0  0  0  0  0  0  0
   -0.1624   -2.9107    2.1123 H   0  0  0  0  0  0  0  0  0  0  0  0
    2.3635   -5.1157    2.8914 H   0  0  0  0  0  0  0  0  0  0  0  0
    1.6831   -6.4655    1.9004 H   0  0  0  0  0  0  0  0  0  0  0  0
    2.5008   -2.7708    1.7919 H   0  0  0  0  0  0  0  0  0  0  0  0
    3.3269   -1.6597   -0.2530 H   0  0  0  0  0  0  0  0  0  0  0  0
    3.4567   -2.9121   -2.3885 H   0  0  0  0  0  0  0  0  0  0  0  0
    2.7637   -5.2908   -2.4760 H   0  0  0  0  0  0  0  0  0  0  0  0
    1.9349   -6.4199   -0.4412 H   0  0  0  0  0  0  0  0  0  0  0  0
  1  2  4  0
  2  3  4  0
  3  4  4  0
  4  5  4  0
  1  6  4  0
  5  6  4  0
  7  8  4  0
  8  9  4  0
  9 10  2  0
  9 11  4  0
 11 12  4  0
 12 13  2  0
  7 14  4  0
 12 14  4  0
  1 15  1  0
  7 15  1  0
 14 16  1  0
 16 17  1  0
 16 18  1  0
  8 19  1  0
 19 20  1  0
 20 21  1  0
 21 22  1  0
 22 23  4  0
 23 24  4  0
 24 25  4  0
 25 26  4  0
 22 27  4  0
 26 27  4  0
  2 28  1  0
  3 29  1  0
  4 30  1  0
  5 31  1  0
  6 32  1  0
 11 33  1  0
 15 34  1  0
 15 35  1  0
 16 36  1  1
 17 37  1  0
 17 38  1  0
 17 39  1  0
 18 40  1  0
 18 41  1  0
 18 42  1  0
 19 43  1  0
 19 44  1  0
 21 45  1  0
 21 46  1  0
 23 47  1  0
 24 48  1  0
 25 49  1  0
 26 50  1  0
 27 51  1  0
M  CHG  2   8   1  11   1
M  END
