7YZU_DO7_A_401
     RDKit          3D

 30 30  0  0  0  0  0  0  0  0999 V2000
   -0.9063    0.4307   -0.7100 C   0  0  0  0  0  0  0  0  0  0  0  0
   -0.2126   -1.9199    0.1902 C   0  0  2  0  0  0  0  0  0  0  0  0
   -0.5742   -2.9072   -0.9472 C   0  0  2  0  0  0  0  0  0  0  0  0
    0.4354   -2.8380   -2.1036 C   0  0  1  0  0  0  0  0  0  0  0  0
    1.5511   -2.5360   -4.3068 C   0  0  0  0  0  0  0  0  0  0  0  0
    0.6874   -1.3729   -2.4980 C   0  0  2  0  0  0  0  0  0  0  0  0
    0.2526   -0.5285   -0.3359 C   0  0  1  0  0  0  0  0  0  0  0  0
    1.6340   -1.3476   -3.5497 O   0  0  0  0  0  0  0  0  0  0  0  0
    1.2000   -0.6478   -1.3895 O   0  0  0  0  0  0  0  0  0  0  0  0
   -1.8200   -0.1119   -2.1529 S   0  0  1  0  0  6  0  0  0  0  0  0
   -3.2802   -0.2667   -1.8340 O   0  0  0  0  0  0  0  0  0  0  0  0
   -1.6587    0.8907   -3.2606 O   0  0  0  0  0  0  0  0  0  0  0  0
   -1.2076   -1.5907   -2.6663 O   0  0  0  0  0  0  0  0  0  0  0  0
    0.7606   -2.4858    1.0353 O   0  0  0  0  0  0  0  0  0  0  0  0
   -1.8598   -2.6291   -1.4428 O   0  0  0  0  0  0  0  0  0  0  0  0
    1.6379   -3.4581   -1.7220 O   0  0  0  0  0  0  0  0  0  0  0  0
   -1.6259    0.4785    0.1352 H   0  0  0  0  0  0  0  0  0  0  0  0
   -0.5365    1.4590   -0.8946 H   0  0  0  0  0  0  0  0  0  0  0  0
   -1.1170   -1.7804    0.8169 H   0  0  0  0  0  0  0  0  0  0  0  0
   -0.5658   -3.9476   -0.5432 H   0  0  0  0  0  0  0  0  0  0  0  0
   -0.0007   -3.3794   -2.9772 H   0  0  0  0  0  0  0  0  0  0  0  0
    1.8524   -3.4177   -3.6994 H   0  0  0  0  0  0  0  0  0  0  0  0
    0.5315   -2.6846   -4.7268 H   0  0  0  0  0  0  0  0  0  0  0  0
    2.2561   -2.4609   -5.1599 H   0  0  0  0  0  0  0  0  0  0  0  0
   -0.2816   -0.9482   -2.8550 H   0  0  0  0  0  0  0  0  0  0  0  0
    0.8011   -0.0441    0.5006 H   0  0  0  0  0  0  0  0  0  0  0  0
   -1.3481   -2.2045   -1.9018 H   0  0  0  0  0  0  0  0  0  0  0  0
    1.6354   -2.4482    0.5697 H   0  0  0  0  0  0  0  0  0  0  0  0
   -2.5085   -2.9678   -0.7716 H   0  0  0  0  0  0  0  0  0  0  0  0
    2.1012   -3.7339   -2.5556 H   0  0  0  0  0  0  0  0  0  0  0  0
  2  3  1  0
  3  4  1  0
  4  6  1  0
  7  1  1  0
  2  7  1  0
  6  8  1  0
  5  8  1  0
  7  9  1  0
  6  9  1  0
  1 10  1  0
 10 11  2  0
 10 12  2  0
 10 13  1  1
  2 14  1  0
  3 15  1  0
  4 16  1  0
  1 17  1  0
  1 18  1  0
  2 19  1  6
  3 20  1  6
  4 21  1  1
  5 22  1  0
  5 23  1  0
  5 24  1  0
  6 25  1  1
  7 26  1  6
 13 27  1  0
 14 28  1  0
 15 29  1  0
 16 30  1  0
M  END
