
     RDKit          3D

 38 40  0  0  0  0  0  0  0  0999 V2000
  -19.1252  -22.9822   20.4709 N   0  0  0  0  0  0  0  0  0  0  0  0
  -17.7948  -23.2673   20.6577 C   0  0  0  0  0  0  0  0  0  0  0  0
  -17.0137  -23.2703   19.5076 N   0  0  0  0  0  0  0  0  0  0  0  0
  -19.7445  -22.7771   19.2723 C   0  0  0  0  0  0  0  0  0  0  0  0
  -18.8720  -22.8040   18.0921 C   0  0  0  0  0  0  0  0  0  0  0  0
  -17.5682  -23.0419   18.2630 C   0  0  0  0  0  0  0  0  0  0  0  0
   -7.1263  -20.0004   14.0785 O   0  0  0  0  0  0  0  0  0  0  0  0
   -8.2371  -19.7365   13.6340 C   0  0  0  0  0  0  0  0  0  0  0  0
   -8.9902  -20.6784   12.7358 C   0  0  0  0  0  0  0  0  0  0  0  0
   -8.9080  -18.5642   13.8832 N   0  0  0  0  0  0  0  0  0  0  0  0
   -8.5559  -17.6827   15.0084 C   0  0  1  0  0  0  0  0  0  0  0  0
   -7.9301  -16.3686   14.5029 C   0  0  2  0  0  0  0  0  0  0  0  0
   -6.8208  -16.6271   13.6230 O   0  0  0  0  0  0  0  0  0  0  0  0
   -7.4743  -15.4906   15.6980 C   0  0  2  0  0  0  0  0  0  0  0  0
   -6.0571  -15.7545   16.0362 N   0  0  0  0  0  0  0  0  0  0  0  0
   -8.3970  -15.7244   16.9198 C   0  0  0  0  0  0  0  0  0  0  0  0
   -8.4704  -14.5041   17.8235 C   0  0  0  0  0  0  0  0  0  0  0  0
   -9.7208  -16.0500   16.4873 O   0  0  0  0  0  0  0  0  0  0  0  0
   -9.7989  -17.3308   15.8641 C   0  0  2  0  0  0  0  0  0  0  0  0
  -10.0485  -18.3459   16.8100 O   0  0  0  0  0  0  0  0  0  0  0  0
  -11.5504  -18.5192   17.3344 P   0  0  2  0  0  5  0  0  0  0  0  0
  -12.3148  -17.2686   17.6218 O   0  0  0  0  0  0  0  0  0  0  0  0
  -11.2978  -19.3360   18.6952 O   0  0  0  0  0  0  0  0  0  0  0  0
  -12.2456  -19.6158   16.4239 O   0  0  0  0  0  0  0  0  0  0  0  0
  -11.6561  -21.0713   16.2110 P   0  0  1  0  0  5  0  0  0  0  0  0
  -11.9372  -21.3189   14.6504 O   0  0  0  0  0  0  0  0  0  0  0  0
  -10.2170  -21.2758   16.5377 O   0  0  0  0  0  0  0  0  0  0  0  0
  -12.6982  -22.0626   16.9103 O   0  0  0  0  0  0  0  0  0  0  0  0
  -13.5410  -21.5539   17.9240 C   0  0  0  0  0  0  0  0  0  0  0  0
  -13.5834  -22.5682   19.0714 C   0  0  1  0  0  0  0  0  0  0  0  0
  -14.8273  -22.4264   19.7982 O   0  0  0  0  0  0  0  0  0  0  0  0
  -13.5273  -24.0137   18.5621 C   0  0  1  0  0  0  0  0  0  0  0  0
  -12.9798  -24.8785   19.5748 O   0  0  0  0  0  0  0  0  0  0  0  0
  -15.0001  -24.3516   18.3731 C   0  0  1  0  0  0  0  0  0  0  0  0
  -15.1996  -25.7682   18.4032 O   0  0  0  0  0  0  0  0  0  0  0  0
  -15.5985  -23.6240   19.5913 C   0  0  2  0  0  0  0  0  0  0  0  0
  -17.3690  -23.4993   21.7868 O   0  0  0  0  0  0  0  0  0  0  0  0
  -20.9505  -22.5839   19.1570 O   0  0  0  0  0  0  0  0  0  0  0  0
  1  2  4  0
  2  3  4  0
  1  4  4  0
  4  5  4  0
  3  6  4  0
  5  6  4  0
  7  8  2  0
  8  9  1  0
  8 10  1  0
 11 10  1  6
 11 12  1  0
 12 13  1  6
 12 14  1  0
 14 15  1  1
 14 16  1  0
 16 17  1  0
 16 18  1  0
 11 19  1  0
 18 19  1  0
 19 20  1  1
 21 20  1  0
 21 22  2  0
 21 23  1  1
 21 24  1  0
 25 24  1  0
 25 26  1  6
 25 27  2  0
 25 28  1  0
 28 29  1  0
 30 29  1  6
 30 31  1  0
 30 32  1  0
 32 33  1  1
 32 34  1  0
 34 35  1  1
 36  3  1  6
 31 36  1  0
 34 36  1  0
  2 37  2  0
  4 38  2  0
M  END
