7XJN_NSD_A_401
     RDKit          3D

  9  8  0  0  0  0  0  0  0  0999 V2000
  -32.8448  -13.5621    5.1822 C   0  0  0  0  0  0  0  0  0  0  0  0
  -33.3867  -13.1814    3.8551 N   0  0  0  0  0  0  0  0  0  0  0  0
  -31.3811  -13.3567    5.2369 C   0  0  0  0  0  0  0  0  0  0  0  0
  -29.3941  -13.5295    6.7079 N   0  0  0  0  0  0  0  0  0  0  0  0
  -30.7810  -13.7245    6.5615 C   0  0  0  0  0  0  0  0  0  0  0  0
  -25.2863  -13.5233    9.3766 N   0  0  0  0  0  0  0  0  0  0  0  0
  -28.7732  -13.7576    7.9607 C   0  0  0  0  0  0  0  0  0  0  0  0
  -27.2779  -13.5391    8.0056 C   0  0  0  0  0  0  0  0  0  0  0  0
  -26.6839  -13.8276    9.3564 C   0  0  0  0  0  0  0  0  0  0  0  0
  1  2  1  6
  3  1  1  1
  5  4  1  6
  3  5  1  0
  7  4  1  6
  8  7  1  6
  9  6  1  6
  8  9  1  0
M  END
$$$$
