7N7H_CTP_A_303
     RDKit          3D

 45 46  0  0  0  0  0  0  0  0999 V2000
   13.0325   51.6541  160.0602 N   0  0  0  0  0  4  0  0  0  0  0  0
   14.1283   50.8971  160.3961 C   0  0  0  0  0  0  0  0  0  0  0  0
   14.2595   50.5018  161.6850 N   0  0  0  0  0  0  0  0  0  0  0  0
   13.2859   50.8611  162.5886 C   0  0  0  0  0  0  0  0  0  0  0  0
   12.1251   51.5309  162.2225 C   0  0  0  0  0  0  0  0  0  0  0  0
   12.0416   51.9573  160.9300 C   0  0  0  0  0  0  0  0  0  0  0  0
   15.0263   50.6042  159.5567 O   0  0  0  0  0  0  0  0  0  0  0  0
   13.5402   50.4776  163.8616 N   0  0  0  0  0  0  0  0  0  0  0  0
   12.9337   52.0868  158.6710 C   0  0  2  0  0  0  0  0  0  0  0  0
   12.4278   51.0261  157.6676 C   0  0  1  0  0  0  0  0  0  0  0  0
   11.0174   50.8303  157.7441 O   0  0  0  0  0  0  0  0  0  0  0  0
   13.0203   51.5272  156.3504 C   0  0  2  0  0  0  0  0  0  0  0  0
   14.3206   52.2470  156.7308 C   0  0  1  0  0  0  0  0  0  0  0  0
   14.2759   52.3425  158.1569 O   0  0  0  0  0  0  0  0  0  0  0  0
   12.1410   52.4975  155.7565 O   0  0  0  0  0  0  0  0  0  0  0  0
   15.5376   51.3751  156.4474 C   0  0  0  0  0  0  0  0  0  0  0  0
   15.4148   50.9273  155.1190 O   0  0  0  0  0  0  0  0  0  0  0  0
   16.0400   51.7097  153.8815 P   0  0  1  0  0  5  0  0  0  0  0  0
   17.4876   51.6151  153.9618 O   0  0  0  0  0  0  0  0  0  0  0  0
   15.3587   51.2238  152.6329 O   0  0  0  0  0  0  0  0  0  0  0  0
   15.5363   53.2540  154.1692 O   0  0  0  0  0  0  0  0  0  0  0  0
   14.1570   53.9738  153.8498 P   0  0  2  0  0  5  0  0  0  0  0  0
   13.8100   53.8503  152.3880 O   0  0  0  0  0  0  0  0  0  0  0  0
   14.2934   55.3448  154.4587 O   0  0  0  0  0  0  0  0  0  0  0  0
   13.2102   53.0934  154.7635 O   0  0  0  0  0  0  0  0  0  0  0  0
   13.5610   51.9159  155.8556 P   0  0  1  0  0  5  0  0  0  0  0  0
   12.4628   50.8859  155.7316 O   0  0  0  0  0  0  0  0  0  0  0  0
   14.9272   51.4308  155.4265 O   0  0  0  0  0  0  0  0  0  0  0  0
   13.5983   52.5815  157.1998 O   0  0  0  0  0  0  0  0  0  0  0  0
   11.3620   51.6978  162.8970 H   0  0  0  0  0  0  0  0  0  0  0  0
   11.2271   52.5084  160.6171 H   0  0  0  0  0  0  0  0  0  0  0  0
   14.3768   50.0048  164.0754 H   0  0  0  0  0  0  0  0  0  0  0  0
   12.8886   50.6715  164.5736 H   0  0  0  0  0  0  0  0  0  0  0  0
   12.2577   52.9149  158.7212 H   0  0  0  0  0  0  0  0  0  0  0  0
   12.7423   50.0197  157.8498 H   0  0  0  0  0  0  0  0  0  0  0  0
   10.5650   51.6757  157.5963 H   0  0  0  0  0  0  0  0  0  0  0  0
   13.1701   50.7211  155.6627 H   0  0  0  0  0  0  0  0  0  0  0  0
   14.3964   53.1712  156.1967 H   0  0  0  0  0  0  0  0  0  0  0  0
   12.0022   53.2305  156.3765 H   0  0  0  0  0  0  0  0  0  0  0  0
   16.4350   51.9463  156.5623 H   0  0  0  0  0  0  0  0  0  0  0  0
   15.5870   50.5509  157.1278 H   0  0  0  0  0  0  0  0  0  0  0  0
   15.6405   50.3151  152.4436 H   0  0  0  0  0  0  0  0  0  0  0  0
   14.8728   55.8891  153.9030 H   0  0  0  0  0  0  0  0  0  0  0  0
   14.8615   51.0081  154.5560 H   0  0  0  0  0  0  0  0  0  0  0  0
   12.7061   52.8777  157.4388 H   0  0  0  0  0  0  0  0  0  0  0  0
  1  2  4  0
  2  3  4  0
  3  4  4  0
  4  5  4  0
  1  6  4  0
  5  6  4  0
  2  7  2  0
  4  8  1  0
  9  1  1  0
  9 10  1  0
 10 11  1  0
 10 12  1  0
 12 13  1  0
  9 14  1  0
 13 14  1  0
 12 15  1  0
 13 16  1  0
 16 17  1  0
 18 17  1  6
 18 19  2  0
 18 20  1  0
 18 21  1  0
 22 21  1  1
 22 23  2  0
 22 24  1  0
 22 25  1  0
 26 25  1  1
 26 27  2  0
 26 28  1  0
 26 29  1  0
  5 30  1  0
  6 31  1  0
  8 32  1  0
  8 33  1  0
  9 34  1  6
 10 35  1  6
 11 36  1  0
 12 37  1  1
 13 38  1  1
 15 39  1  0
 16 40  1  0
 16 41  1  0
 20 42  1  0
 24 43  1  0
 28 44  1  0
 29 45  1  0
M  CHG  1   1   1
M  END
