7N7H_CTP_A_303
     RDKit          3D

 29 30  0  0  0  0  0  0  0  0999 V2000
   12.8310   51.2410  160.0700 N   0  0  0  0  0  0  0  0  0  0  0  0
   11.7170   51.4780  160.8380 C   0  0  0  0  0  0  0  0  0  0  0  0
   11.8400   51.3900  162.1840 N   0  0  0  0  0  0  0  0  0  0  0  0
   13.0640   51.0530  162.7150 C   0  0  0  0  0  0  0  0  0  0  0  0
   14.1580   50.7060  161.9320 C   0  0  0  0  0  0  0  0  0  0  0  0
   14.0200   50.8490  160.5830 C   0  0  0  0  0  0  0  0  0  0  0  0
   10.6100   51.8160  160.3310 O   0  0  0  0  0  0  0  0  0  0  0  0
   13.1030   51.0570  164.0680 N   0  0  0  0  0  0  0  0  0  0  0  0
   12.6730   51.3700  158.6260 C   0  0  1  0  0  0  0  0  0  0  0  0
   13.7030   52.2740  157.9120 C   0  0  2  0  0  0  0  0  0  0  0  0
   13.4360   53.6620  158.1010 O   0  0  0  0  0  0  0  0  0  0  0  0
   13.6800   51.7180  156.4880 C   0  0  1  0  0  0  0  0  0  0  0  0
   13.3350   50.2300  156.6320 C   0  0  2  0  0  0  0  0  0  0  0  0
   12.9500   50.0800  158.0010 O   0  0  0  0  0  0  0  0  0  0  0  0
   12.6240   52.3410  155.7370 O   0  0  0  0  0  0  0  0  0  0  0  0
   14.5770   49.3590  156.4900 C   0  0  0  0  0  0  0  0  0  0  0  0
   14.8920   49.3230  155.1190 O   0  0  0  0  0  0  0  0  0  0  0  0
   16.3860   49.3880  154.5730 P   0  0  2  0  0  0  0  0  0  0  0  0
   16.4150   48.8040  153.2430 O   0  0  0  0  0  0  0  0  0  0  0  0
   17.2910   48.8140  155.6270 O   0  0  0  0  0  0  0  0  0  0  0  0
   16.6500   51.0150  154.5050 O   0  0  0  0  0  0  0  0  0  0  0  0
   17.7960   51.8530  153.7930 P   0  0  1  0  0  0  0  0  0  0  0  0
   17.5050   52.0250  152.3240 O   0  0  0  0  0  0  0  0  0  0  0  0
   17.9650   53.0760  154.6560 O   0  0  0  0  0  0  0  0  0  0  0  0
   19.0080   50.8670  154.0490 O   0  0  0  0  0  0  0  0  0  0  0  0
   20.5590   50.9060  153.5060 P   0  0  0  0  0  0  0  0  0  0  0  0
   20.5980   50.0240  152.2800 O   0  0  0  0  0  0  0  0  0  0  0  0
   21.3580   50.3850  154.6790 O   0  0  0  0  0  0  0  0  0  0  0  0
   20.8690   52.3440  153.2100 O   0  0  0  0  0  0  0  0  0  0  0  0
  1  2  1  0
  2  3  1  0
  3  4  2  0
  4  5  1  0
  1  6  1  0
  5  6  2  0
  2  7  2  0
  4  8  1  0
  9  1  1  1
  9 10  1  0
 10 11  1  6
 10 12  1  0
 12 13  1  0
  9 14  1  0
 13 14  1  0
 12 15  1  6
 13 16  1  1
 16 17  1  0
 17 18  1  0
 18 19  2  0
 18 20  1  1
 18 21  1  0
 21 22  1  0
 22 23  2  0
 22 24  1  1
 22 25  1  0
 25 26  1  0
 26 27  2  0
 26 28  1  0
 26 29  1  0
M  END
$$$$
