6WTN_RXT_A_1204
     RDKit          3D

 23 26  0  0  0  0  0  0  0  0999 V2000
   22.1360   11.3500    4.6960 C   0  0  0  0  0  0  0  0  0  0  0  0
   20.9320   10.4190    4.2410 C   0  0  0  0  0  0  0  0  0  0  0  0
   19.6430   11.0420    4.9320 C   0  0  0  0  0  0  0  0  0  0  0  0
   20.0330   12.4320    5.3570 C   0  0  0  0  0  0  0  0  0  0  0  0
   21.5540   12.4940    5.5450 C   0  0  0  0  0  0  0  0  0  0  0  0
   21.9470   12.2730    6.9940 C   0  0  1  0  0  0  0  0  0  0  0  0
   23.4650   12.4620    7.0830 C   0  0  0  0  0  0  0  0  0  0  0  0
   23.9140   12.2380    8.4490 C   0  0  0  0  0  0  0  0  0  0  0  0
   24.3230   12.1000    9.5020 N   0  0  0  0  0  0  0  0  0  0  0  0
   21.3960   13.3200    7.8700 N   0  0  0  0  0  0  0  0  0  0  0  0
   20.9870   13.1530    9.1450 C   0  0  0  0  0  0  0  0  0  0  0  0
   21.3050   14.6740    7.5560 N   0  0  0  0  0  0  0  0  0  0  0  0
   20.8130   15.3070    8.6230 C   0  0  0  0  0  0  0  0  0  0  0  0
   20.5870   14.3800    9.6110 C   0  0  0  0  0  0  0  0  0  0  0  0
   20.1140   14.6750   10.9870 C   0  0  0  0  0  0  0  0  0  0  0  0
   20.2030   15.9560   11.3170 N   0  0  0  0  0  0  0  0  0  0  0  0
   19.8340   16.3000   12.5780 C   0  0  0  0  0  0  0  0  0  0  0  0
   19.4270   15.4860   13.5390 N   0  0  0  0  0  0  0  0  0  0  0  0
   19.3500   14.1750   13.2150 C   0  0  0  0  0  0  0  0  0  0  0  0
   19.6960   13.7320   11.9780 C   0  0  0  0  0  0  0  0  0  0  0  0
   19.5280   12.3660   11.9670 C   0  0  0  0  0  0  0  0  0  0  0  0
   19.0750   12.0000   13.2090 C   0  0  0  0  0  0  0  0  0  0  0  0
   18.9790   13.1160   13.9610 N   0  0  0  0  0  0  0  0  0  0  0  0
  1  2  1  0
  2  3  1  0
  3  4  1  0
  4  5  1  0
  1  5  1  0
  5  6  1  0
  6  7  1  6
  7  8  1  0
  8  9  3  0
  6 10  1  0
 10 11  1  0
 10 12  1  0
 12 13  2  0
 13 14  1  0
 11 14  2  0
 14 15  1  0
 15 16  2  0
 16 17  1  0
 17 18  2  0
 18 19  1  0
 15 20  1  0
 19 20  2  0
 20 21  1  0
 21 22  2  0
 19 23  1  0
 22 23  1  0
M  END
$$$$
