7P1F_KFN_B_501
     RDKit          3D

 17 17  0  0  0  0  0  0  0  0999 V2000
   19.1727  -32.6696    6.5919 C   0  0  0  0  0  0  0  0  0  0  0  0
   18.0657  -33.3670    8.6250 C   0  0  0  0  0  0  0  0  0  0  0  0
   16.9554  -33.9163    9.4374 C   0  0  1  0  0  0  0  0  0  0  0  0
   15.9063  -34.5294    8.5465 C   0  0  2  0  0  0  0  0  0  0  0  0
   15.6804  -33.6966    7.2776 C   0  0  2  0  0  0  0  0  0  0  0  0
   14.5793  -34.3857    6.5189 C   0  0  1  0  0  0  0  0  0  0  0  0
   14.3240  -33.7562    5.1705 C   0  0  1  0  0  0  0  0  0  0  0  0
   13.1163  -34.4031    4.5323 C   0  0  0  0  0  0  0  0  0  0  0  0
   14.6860  -34.5349    9.2190 O   0  0  0  0  0  0  0  0  0  0  0  0
   20.3380  -32.3174    7.2420 O   0  0  0  0  0  0  0  0  0  0  0  0
   19.1141  -32.5033    5.3468 O   0  0  0  0  0  0  0  0  0  0  0  0
   17.4821  -34.9280   10.2446 O   0  0  0  0  0  0  0  0  0  0  0  0
   16.8877  -33.5942    6.5821 O   0  0  0  0  0  0  0  0  0  0  0  0
   18.0130  -33.2273    7.3093 C   0  0  0  0  0  0  0  0  0  0  0  0
   14.8397  -35.7490    6.3935 O   0  0  0  0  0  0  0  0  0  0  0  0
   14.2057  -32.3897    5.2252 O   0  0  0  0  0  0  0  0  0  0  0  0
   12.8345  -33.9051    3.2864 O   0  0  0  0  0  0  0  0  0  0  0  0
  2  3  1  0
  3  4  1  0
  4  5  1  0
  5  6  1  0
  6  7  1  0
  7  8  1  0
  4  9  1  1
  1 10  1  0
  1 11  2  0
  3 12  1  1
  5 13  1  6
  1 14  1  0
  2 14  2  0
 13 14  1  0
  6 15  1  6
  7 16  1  1
  8 17  1  6
M  END
$$$$
