7VC5_9SF_A_902
     RDKit          3D

 41 43  0  0  0  0  0  0  0  0999 V2000
   15.0364  -13.5420    9.0537 N   0  0  0  0  0  0  0  0  0  0  0  0
   14.9488  -14.6106    8.2226 C   0  0  0  0  0  0  0  0  0  0  0  0
   18.5302  -13.7228   10.1607 C   0  0  0  0  0  0  0  0  0  0  0  0
   18.5828  -12.6129   11.0099 C   0  0  0  0  0  0  0  0  0  0  0  0
   17.4480  -11.8194   11.2014 C   0  0  0  0  0  0  0  0  0  0  0  0
   16.2546  -12.1317   10.5445 C   0  0  0  0  0  0  0  0  0  0  0  0
   17.3323  -14.0454    9.4952 C   0  0  0  0  0  0  0  0  0  0  0  0
   15.9083  -16.5551    7.0799 C   0  0  1  0  0  0  0  0  0  0  0  0
   16.9057  -13.6890    5.8459 C   0  0  2  0  0  0  0  0  0  0  0  0
   16.1549  -16.1145    5.6590 C   0  0  0  0  0  0  0  0  0  0  0  0
   17.2261  -15.1054    5.3223 C   0  0  1  0  0  0  0  0  0  0  0  0
   17.9922  -12.6474    5.4500 C   0  0  2  0  0  0  0  0  0  0  0  0
   17.2243  -15.1485    8.6300 C   0  0  0  0  0  0  0  0  0  0  0  0
   19.3108  -12.8795    6.2135 C   0  0  2  0  0  0  0  0  0  0  0  0
   19.1016  -13.3876    7.6506 C   0  0  2  0  0  0  0  0  0  0  0  0
   17.6840  -13.1099    8.1530 C   0  0  1  0  0  0  0  0  0  0  0  0
   16.1929  -13.2408    9.6928 C   0  0  0  0  0  0  0  0  0  0  0  0
   16.6722  -13.7673    7.3088 N   0  0  0  0  0  0  0  0  0  0  0  0
   16.0311  -15.4189    8.0081 N   0  0  0  0  0  0  0  0  0  0  0  0
   18.2281  -15.8876    8.4246 O   0  0  0  0  0  0  0  0  0  0  0  0
   15.4514  -16.5601    4.7649 O   0  0  0  0  0  0  0  0  0  0  0  0
   17.5254  -11.3486    5.7156 O   0  0  0  0  0  0  0  0  0  0  0  0
   14.0055  -14.8080    7.7290 H   0  0  0  0  0  0  0  0  0  0  0  0
   19.4217  -14.3230   10.0274 H   0  0  0  0  0  0  0  0  0  0  0  0
   19.5049  -12.3671   11.5206 H   0  0  0  0  0  0  0  0  0  0  0  0
   17.4938  -10.9614   11.8596 H   0  0  0  0  0  0  0  0  0  0  0  0
   15.3802  -11.5111   10.6979 H   0  0  0  0  0  0  0  0  0  0  0  0
   14.9023  -17.0232    7.1474 H   0  0  0  0  0  0  0  0  0  0  0  0
   16.6322  -17.3508    7.3644 H   0  0  0  0  0  0  0  0  0  0  0  0
   15.9549  -13.3734    5.3596 H   0  0  0  0  0  0  0  0  0  0  0  0
   17.3801  -15.0796    4.2225 H   0  0  0  0  0  0  0  0  0  0  0  0
   18.1861  -15.4481    5.7645 H   0  0  0  0  0  0  0  0  0  0  0  0
   18.2136  -12.7227    4.3603 H   0  0  0  0  0  0  0  0  0  0  0  0
   19.8923  -11.9315    6.2349 H   0  0  0  0  0  0  0  0  0  0  0  0
   19.9297  -13.6195    5.6602 H   0  0  0  0  0  0  0  0  0  0  0  0
   19.8354  -12.9010    8.3290 H   0  0  0  0  0  0  0  0  0  0  0  0
   19.2869  -14.4831    7.6921 H   0  0  0  0  0  0  0  0  0  0  0  0
   17.5901  -13.5001    9.1888 H   0  0  0  0  0  0  0  0  0  0  0  0
   17.5033  -12.0128    8.1959 H   0  0  0  0  0  0  0  0  0  0  0  0
   15.7425  -13.3402    7.5329 H   0  0  0  0  0  0  0  0  0  0  0  0
   16.5357  -11.3756    5.6388 H   0  0  0  0  0  0  0  0  0  0  0  0
  1  2  2  0
  3  4  2  0
  4  5  1  0
  5  6  2  0
  3  7  1  0
  8 10  1  0
  9 11  1  0
 10 11  1  0
  9 12  1  0
  7 13  1  0
 12 14  1  0
 14 15  1  0
 15 16  1  0
  1 17  1  0
  7 17  2  0
  6 17  1  0
 16 18  1  0
  9 18  1  0
  8 19  1  0
  2 19  1  0
 13 19  1  0
 13 20  2  0
 10 21  2  0
 12 22  1  0
  2 23  1  0
  3 24  1  0
  4 25  1  0
  5 26  1  0
  6 27  1  0
  8 28  1  6
  8 29  1  0
  9 30  1  6
 11 31  1  6
 11 32  1  0
 12 33  1  6
 14 34  1  1
 14 35  1  0
 15 36  1  1
 15 37  1  0
 16 38  1  1
 16 39  1  0
 18 40  1  0
 22 41  1  0
M  END
