6ZAE_ACV_A_403
     RDKit          3D

 49 48  0  0  0  0  0  0  0  0999 V2000
   -4.7169    1.2485    0.7595 C   0  0  0  0  0  0  0  0  0  0  0  0
   -3.3695    1.5887    0.1832 C   0  0  2  0  0  0  0  0  0  0  0  0
   -2.6798    2.6847    1.0257 C   0  0  0  0  0  0  0  0  0  0  0  0
   -2.2304    2.1971    2.4221 C   0  0  0  0  0  0  0  0  0  0  0  0
   -0.7596    1.7532    2.4736 C   0  0  0  0  0  0  0  0  0  0  0  0
   -0.5209    0.4965    1.6912 C   0  0  0  0  0  0  0  0  0  0  0  0
   -0.0506    0.5672    0.3368 N   0  0  0  0  0  0  0  0  0  0  0  0
    0.0660   -0.6279   -0.5068 C   0  0  2  0  0  0  0  0  0  0  0  0
    1.2189   -1.4907   -0.0613 C   0  0  0  0  0  0  0  0  0  0  0  0
   -3.5350    2.0525   -1.1947 N   0  0  0  0  0  0  0  0  0  0  0  0
   -0.7779   -0.6196    2.2191 O   0  0  0  0  0  0  0  0  0  0  0  0
    0.1967   -0.2591   -1.9960 C   0  0  0  0  0  0  0  0  0  0  0  0
    1.7297    0.6617   -2.3733 S   0  0  0  0  0  0  0  0  0  0  0  0
    2.2370   -0.9577    0.4600 O   0  0  0  0  0  0  0  0  0  0  0  0
   -5.7436    2.1880    0.7344 O   0  0  0  0  0  0  0  0  0  0  0  0
   -4.9152    0.1158    1.2754 O   0  0  0  0  0  0  0  0  0  0  0  0
    1.1746   -2.9086   -0.2823 N   0  0  0  0  0  0  0  0  0  0  0  0
    2.3080   -3.7989    0.0044 C   0  0  1  0  0  0  0  0  0  0  0  0
    1.8432   -5.0302    0.7375 C   0  0  0  0  0  0  0  0  0  0  0  0
    3.0807   -4.1704   -1.2898 C   0  0  0  0  0  0  0  0  0  0  0  0
    3.7718   -2.9400   -1.8937 C   0  0  0  0  0  0  0  0  0  0  0  0
    2.1954   -4.8486   -2.3490 C   0  0  0  0  0  0  0  0  0  0  0  0
    0.6881   -5.4989    0.5469 O   0  0  0  0  0  0  0  0  0  0  0  0
    2.7170   -5.6827    1.6018 O   0  0  0  0  0  0  0  0  0  0  0  0
   -2.7421    0.6718    0.1731 H   0  0  0  0  0  0  0  0  0  0  0  0
   -1.8053    3.0915    0.4725 H   0  0  0  0  0  0  0  0  0  0  0  0
   -3.3852    3.5361    1.1516 H   0  0  0  0  0  0  0  0  0  0  0  0
   -2.3427    3.0447    3.1330 H   0  0  0  0  0  0  0  0  0  0  0  0
   -2.8857    1.3822    2.7986 H   0  0  0  0  0  0  0  0  0  0  0  0
   -0.1013    2.5677    2.1013 H   0  0  0  0  0  0  0  0  0  0  0  0
   -0.4795    1.5700    3.5336 H   0  0  0  0  0  0  0  0  0  0  0  0
    0.1304    1.5114   -0.0706 H   0  0  0  0  0  0  0  0  0  0  0  0
   -0.8732   -1.2156   -0.4036 H   0  0  0  0  0  0  0  0  0  0  0  0
   -2.5854    2.1948   -1.6103 H   0  0  0  0  0  0  0  0  0  0  0  0
   -3.9752    1.2830   -1.7510 H   0  0  0  0  0  0  0  0  0  0  0  0
    0.1951   -1.1896   -2.6035 H   0  0  0  0  0  0  0  0  0  0  0  0
   -0.6812    0.3459   -2.3094 H   0  0  0  0  0  0  0  0  0  0  0  0
    1.1403    1.9215   -2.1579 H   0  0  0  0  0  0  0  0  0  0  0  0
   -6.6537    1.9732    1.1238 H   0  0  0  0  0  0  0  0  0  0  0  0
    0.3318   -3.3031   -0.7585 H   0  0  0  0  0  0  0  0  0  0  0  0
    3.0178   -3.2871    0.6910 H   0  0  0  0  0  0  0  0  0  0  0  0
    3.8837   -4.8904   -1.0133 H   0  0  0  0  0  0  0  0  0  0  0  0
    3.0230   -2.2029   -2.2524 H   0  0  0  0  0  0  0  0  0  0  0  0
    4.4242   -2.4529   -1.1381 H   0  0  0  0  0  0  0  0  0  0  0  0
    4.4080   -3.2426   -2.7526 H   0  0  0  0  0  0  0  0  0  0  0  0
    2.8156   -5.1591   -3.2168 H   0  0  0  0  0  0  0  0  0  0  0  0
    1.4079   -4.1564   -2.7147 H   0  0  0  0  0  0  0  0  0  0  0  0
    1.7159   -5.7600   -1.9361 H   0  0  0  0  0  0  0  0  0  0  0  0
    2.4323   -6.5217    2.0928 H   0  0  0  0  0  0  0  0  0  0  0  0
  1  2  1  0
  2  3  1  0
  3  4  1  0
  4  5  1  0
  5  6  1  0
  6  7  1  0
  7  8  1  0
  8  9  1  0
  2 10  1  0
  6 11  2  0
  8 12  1  0
 12 13  1  0
  9 14  2  0
  1 15  1  0
  1 16  2  0
  9 17  1  0
 18 17  1  0
 18 19  1  0
 18 20  1  0
 20 21  1  0
 20 22  1  0
 19 23  2  0
 19 24  1  0
  2 25  1  6
  3 26  1  0
  3 27  1  0
  4 28  1  0
  4 29  1  0
  5 30  1  0
  5 31  1  0
  7 32  1  0
  8 33  1  6
 10 34  1  0
 10 35  1  0
 12 36  1  0
 12 37  1  0
 13 38  1  0
 15 39  1  0
 17 40  1  0
 18 41  1  1
 20 42  1  0
 21 43  1  0
 21 44  1  0
 21 45  1  0
 22 46  1  0
 22 47  1  0
 22 48  1  0
 24 49  1  0
M  END
