6ZAE_ACV_A_403
     RDKit          3D

 24 23  0  0  0  0  0  0  0  0999 V2000
   56.5770   72.1350    8.8260 C   0  0  0  0  0  0  0  0  0  0  0  0
   55.7930   73.3780    9.2280 C   0  0  2  0  0  0  0  0  0  0  0  0
   56.3690   74.6100    8.5230 C   0  0  0  0  0  0  0  0  0  0  0  0
   55.6540   75.8990    8.9070 C   0  0  0  0  0  0  0  0  0  0  0  0
   56.2880   77.1470    8.3080 C   0  0  0  0  0  0  0  0  0  0  0  0
   55.5360   78.4000    8.6830 C   0  0  0  0  0  0  0  0  0  0  0  0
   54.8270   78.9540    7.6980 N   0  0  0  0  0  0  0  0  0  0  0  0
   54.1480   80.2300    7.8290 C   0  0  2  0  0  0  0  0  0  0  0  0
   52.6420   80.0150    7.6870 C   0  0  0  0  0  0  0  0  0  0  0  0
   55.8180   73.5210   10.6960 N   0  0  0  0  0  0  0  0  0  0  0  0
   55.5920   78.8830    9.8150 O   0  0  0  0  0  0  0  0  0  0  0  0
   54.6010   81.1800    6.7320 C   0  0  0  0  0  0  0  0  0  0  0  0
   54.4810   80.4780    5.0680 S   0  0  0  0  0  0  0  0  0  0  0  0
   52.1810   78.8850    7.5480 O   0  0  0  0  0  0  0  0  0  0  0  0
   56.4480   71.7950    7.5770 O   0  0  0  0  0  0  0  0  0  0  0  0
   57.2650   71.5370    9.6290 O   0  0  0  0  0  0  0  0  0  0  0  0
   51.8820   81.1100    7.6950 N   0  0  0  0  0  0  0  0  0  0  0  0
   50.4690   81.0600    7.3730 C   0  0  1  0  0  0  0  0  0  0  0  0
   49.7530   82.0320    8.2900 C   0  0  0  0  0  0  0  0  0  0  0  0
   50.2050   81.3860    5.8870 C   0  0  0  0  0  0  0  0  0  0  0  0
   50.8580   82.7110    5.4940 C   0  0  0  0  0  0  0  0  0  0  0  0
   50.6940   80.2470    4.9880 C   0  0  0  0  0  0  0  0  0  0  0  0
   50.3570   82.5960    9.1830 O   0  0  0  0  0  0  0  0  0  0  0  0
   48.4860   82.1840    8.0360 O   0  0  0  0  0  0  0  0  0  0  0  0
  1  2  1  0
  2  3  1  0
  3  4  1  0
  4  5  1  0
  5  6  1  0
  6  7  1  0
  7  8  1  0
  8  9  1  0
  2 10  1  1
  6 11  2  0
  8 12  1  6
 12 13  1  0
  9 14  2  0
  1 15  1  0
  1 16  2  0
  9 17  1  0
 18 17  1  6
 18 19  1  0
 18 20  1  0
 20 21  1  0
 20 22  1  0
 19 23  2  0
 19 24  1  0
M  END
$$$$
