
     RDKit          3D

 33 35  0  0  0  0  0  0  0  0999 V2000
  -10.2942   15.8472   51.1665 P   0  0  2  0  0  5  0  0  0  0  0  0
  -11.5184   16.8705   51.3959 O   0  0  0  0  0  0  0  0  0  0  0  0
  -10.2850   14.8069   52.2351 O   0  0  0  0  0  0  0  0  0  0  0  0
   -9.0384   16.8044   51.1102 O   0  0  0  0  0  0  0  0  0  0  0  0
  -10.5499   15.2954   49.6797 O   0  0  0  0  0  0  0  0  0  0  0  0
   -7.7319   16.6086   50.2327 P   0  0  1  0  0  5  0  0  0  0  0  0
   -6.5987   17.3677   51.0792 O   0  0  0  0  0  0  0  0  0  0  0  0
   -7.3688   15.1914   49.9453 O   0  0  0  0  0  0  0  0  0  0  0  0
   -7.9633   17.5294   48.9601 O   0  0  0  0  0  0  0  0  0  0  0  0
   -7.7288   19.0907   48.9867 P   0  0  0  0  0  5  0  0  0  0  0  0
   -8.5942   19.7026   47.8037 O   0  0  0  0  0  0  0  0  0  0  0  0
   -6.3005   19.5298   49.0711 O   0  0  0  0  0  0  0  0  0  0  0  0
   -8.5712   19.5700   50.2571 O   0  0  0  0  0  0  0  0  0  0  0  0
  -10.8183   16.2588   48.6786 C   0  0  0  0  0  0  0  0  0  0  0  0
  -11.3957   15.6211   47.4107 C   0  0  1  0  0  0  0  0  0  0  0  0
  -11.7224   14.2494   47.7107 O   0  0  0  0  0  0  0  0  0  0  0  0
  -12.6606   16.3012   46.8813 C   0  0  1  0  0  0  0  0  0  0  0  0
  -12.3812   17.2770   45.8661 O   0  0  0  0  0  0  0  0  0  0  0  0
  -13.4563   15.1483   46.2939 C   0  0  1  0  0  0  0  0  0  0  0  0
  -13.1646   14.9913   44.8950 O   0  0  0  0  0  0  0  0  0  0  0  0
  -12.9546   13.9249   47.0665 C   0  0  2  0  0  0  0  0  0  0  0  0
  -13.8711   13.4100   48.0769 N   0  0  0  0  0  0  0  0  0  0  0  0
  -13.7537   13.6810   49.3846 C   0  0  0  0  0  0  0  0  0  0  0  0
  -14.7602   13.0763   50.0312 N   0  0  0  0  0  4  0  0  0  0  0  0
  -14.9966   13.1051   51.4688 C   0  0  0  0  0  0  0  0  0  0  0  0
  -15.5666   12.4357   49.0945 C   0  0  0  0  0  0  0  0  0  0  0  0
  -16.7670   11.6762   49.2195 C   0  0  0  0  0  0  0  0  0  0  0  0
  -17.3935   11.3839   50.2333 O   0  0  0  0  0  0  0  0  0  0  0  0
  -17.1980   11.2643   47.9664 N   0  0  0  0  0  0  0  0  0  0  0  0
  -16.5644   11.5262   46.7689 C   0  0  0  0  0  0  0  0  0  0  0  0
  -17.1539   11.0273   45.6583 N   0  0  0  0  0  0  0  0  0  0  0  0
  -15.4597   12.2077   46.6680 N   0  0  0  0  0  0  0  0  0  0  0  0
  -15.0037   12.6496   47.8603 C   0  0  0  0  0  0  0  0  0  0  0  0
  1  2  1  1
  1  3  2  0
  1  4  1  0
  1  5  1  0
  4  6  1  0
  6  7  1  1
  6  8  2  0
  6  9  1  0
  9 10  1  0
 10 11  1  0
 10 12  2  0
 10 13  1  0
  5 14  1  0
 15 14  1  1
 15 16  1  0
 15 17  1  0
 17 18  1  6
 17 19  1  0
 19 20  1  6
 16 21  1  0
 19 21  1  0
 21 22  1  1
 22 23  4  0
 23 24  4  0
 24 25  1  0
 24 26  4  0
 26 27  4  0
 27 28  2  0
 27 29  4  0
 29 30  4  0
 30 31  1  0
 30 32  4  0
 22 33  4  0
 26 33  4  0
 32 33  4  0
M  CHG  1  24   1
M  END
