7QTA_URI_B_407
     RDKit          3D

 17 18  0  0  0  0  0  0  0  0999 V2000
   -1.1797   -0.1999    4.5794 N   0  0  0  0  0  0  0  0  0  0  0  0
   -0.6542    0.9602    4.0254 C   0  0  0  0  0  0  0  0  0  0  0  0
   -1.5633    1.7189    3.3438 N   0  0  0  0  0  0  0  0  0  0  0  0
   -2.9181    1.4870    3.2135 C   0  0  0  0  0  0  0  0  0  0  0  0
   -3.3708    0.2460    3.7803 C   0  0  0  0  0  0  0  0  0  0  0  0
   -2.5103   -0.5175    4.4706 C   0  0  0  0  0  0  0  0  0  0  0  0
    0.5225    1.2985    4.1161 O   0  0  0  0  0  0  0  0  0  0  0  0
   -3.6164    2.2638    2.5648 O   0  0  0  0  0  0  0  0  0  0  0  0
   -0.2876   -1.1132    5.3215 C   0  0  1  0  0  0  0  0  0  0  0  0
   -0.6991   -1.2144    6.7943 C   0  0  1  0  0  0  0  0  0  0  0  0
   -0.9775   -2.7215    6.9961 C   0  0  1  0  0  0  0  0  0  0  0  0
   -0.2289   -3.3693    5.8231 C   0  0  2  0  0  0  0  0  0  0  0  0
    0.3001   -0.6216    7.5964 O   0  0  0  0  0  0  0  0  0  0  0  0
   -0.6009   -3.2244    8.2736 O   0  0  0  0  0  0  0  0  0  0  0  0
   -0.4084   -2.4077    4.7632 O   0  0  0  0  0  0  0  0  0  0  0  0
   -0.7740   -4.7063    5.3798 C   0  0  0  0  0  0  0  0  0  0  0  0
   -0.1693   -5.0989    4.1261 O   0  0  0  0  0  0  0  0  0  0  0  0
  1  2  1  0
  2  3  1  0
  3  4  1  0
  4  5  1  0
  1  6  1  0
  5  6  2  0
  2  7  2  0
  4  8  2  0
  9  1  1  6
  9 10  1  0
 10 11  1  0
 11 12  1  0
 10 13  1  1
 11 14  1  1
  9 15  1  0
 12 15  1  0
 12 16  1  6
 16 17  1  0
M  END
