7UTW_NAI_B_403
     RDKit          3D

 44 48  0  0  0  0  0  0  0  0999 V2000
   23.7616  -18.9597  -15.9604 P   0  0  2  0  0  0  0  0  0  0  0  0
   22.8299  -18.8735  -17.1454 O   0  0  0  0  0  0  0  0  0  0  0  0
   24.2172  -20.3105  -15.4943 O   0  0  0  0  0  0  0  0  0  0  0  0
   23.0907  -18.2306  -14.7005 O   0  0  0  0  0  0  0  0  0  0  0  0
   21.6835  -18.1962  -14.5977 C   0  0  0  0  0  0  0  0  0  0  0  0
   21.3204  -17.4627  -13.2599 C   0  0  1  0  0  0  0  0  0  0  0  0
   20.5323  -16.3943  -13.5825 O   0  0  0  0  0  0  0  0  0  0  0  0
   20.5411  -18.3639  -12.2517 C   0  0  1  0  0  0  0  0  0  0  0  0
   21.2185  -18.5014  -11.0540 O   0  0  0  0  0  0  0  0  0  0  0  0
   19.1909  -17.5960  -12.1296 C   0  0  1  0  0  0  0  0  0  0  0  0
   18.5853  -17.7415  -10.8025 O   0  0  0  0  0  0  0  0  0  0  0  0
   19.5283  -16.2714  -12.4393 C   0  0  2  0  0  0  0  0  0  0  0  0
   18.4261  -15.4444  -12.9569 N   0  0  0  0  0  0  0  0  0  0  0  0
   17.1769  -15.9043  -13.2190 C   0  0  0  0  0  0  0  0  0  0  0  0
   16.4101  -14.8543  -13.6316 N   0  0  0  0  0  0  0  0  0  0  0  0
   17.2225  -13.7823  -13.6406 C   0  0  0  0  0  0  0  0  0  0  0  0
   17.0273  -12.4689  -13.9979 C   0  0  0  0  0  0  0  0  0  0  0  0
   15.8226  -11.8418  -14.4642 N   0  0  0  0  0  0  0  0  0  0  0  0
   18.0181  -11.6380  -13.9329 N   0  0  0  0  0  0  0  0  0  0  0  0
   19.2639  -12.0113  -13.5364 C   0  0  0  0  0  0  0  0  0  0  0  0
   19.4989  -13.3112  -13.1603 N   0  0  0  0  0  0  0  0  0  0  0  0
   18.4639  -14.1337  -13.2407 C   0  0  0  0  0  0  0  0  0  0  0  0
   25.0004  -18.0364  -16.3831 O   0  0  0  0  0  0  0  0  0  0  0  0
   25.8742  -16.9647  -15.5332 P   0  0  2  0  0  0  0  0  0  0  0  0
   27.3129  -17.3500  -15.5135 O   0  0  0  0  0  0  0  0  0  0  0  0
   25.1978  -16.6107  -14.2589 O   0  0  0  0  0  0  0  0  0  0  0  0
   25.7828  -15.7385  -16.5871 O   0  0  0  0  0  0  0  0  0  0  0  0
   24.6959  -15.7612  -17.5369 C   0  0  0  0  0  0  0  0  0  0  0  0
   25.1468  -14.9930  -18.7952 C   0  0  1  0  0  0  0  0  0  0  0  0
   24.1125  -14.8348  -19.6873 O   0  0  0  0  0  0  0  0  0  0  0  0
   25.7678  -13.6049  -18.4693 C   0  0  1  0  0  0  0  0  0  0  0  0
   26.8639  -13.2769  -19.3182 O   0  0  0  0  0  0  0  0  0  0  0  0
   24.5704  -12.7282  -18.9035 C   0  0  1  0  0  0  0  0  0  0  0  0
   24.9800  -11.3649  -19.1353 O   0  0  0  0  0  0  0  0  0  0  0  0
   24.0969  -13.3198  -20.0683 C   0  0  2  0  0  0  0  0  0  0  0  0
   22.7245  -13.0889  -20.4487 N   0  0  0  0  0  0  0  0  0  0  0  0
   21.7691  -13.1371  -19.4070 C   0  0  0  0  0  0  0  0  0  0  0  0
   20.3872  -12.7857  -19.7003 C   0  0  0  0  0  0  0  0  0  0  0  0
   19.3714  -12.7437  -18.6149 C   0  0  0  0  0  0  0  0  0  0  0  0
   18.9052  -11.6785  -18.2846 O   0  0  0  0  0  0  0  0  0  0  0  0
   19.0630  -13.9774  -17.9898 N   0  0  0  0  0  0  0  0  0  0  0  0
   19.9212  -12.6459  -21.1381 C   0  0  0  0  0  0  0  0  0  0  0  0
   21.0368  -12.2643  -22.0577 C   0  0  0  0  0  0  0  0  0  0  0  0
   22.4142  -12.6449  -21.7598 C   0  0  0  0  0  0  0  0  0  0  0  0
  1  2  2  0
  1  3  1  1
  1  4  1  0
  4  5  1  0
  6  5  1  6
  6  7  1  0
  6  8  1  0
  8  9  1  1
  8 10  1  0
 10 11  1  1
  7 12  1  0
 10 12  1  0
 12 13  1  6
 13 14  1  0
 14 15  2  0
 15 16  1  0
 16 17  2  0
 17 18  1  0
 17 19  1  0
 19 20  2  0
 20 21  1  0
 13 22  1  0
 16 22  1  0
 21 22  2  0
  1 23  1  0
 23 24  1  0
 24 25  1  1
 24 26  2  0
 24 27  1  0
 27 28  1  0
 29 28  1  1
 29 30  1  0
 29 31  1  0
 31 32  1  6
 31 33  1  0
 33 34  1  6
 30 35  1  0
 33 35  1  0
 35 36  1  1
 36 37  1  0
 37 38  2  0
 38 39  1  0
 39 40  2  0
 39 41  1  0
 38 42  1  0
 42 43  1  0
 36 44  1  0
 43 44  2  0
M  END
