7LMO_NYO_B_501
     RDKit          3D

 37 41  0  0  0  0  0  0  0  0999 V2000
   -4.9767  -19.0148   39.7075 C   0  0  0  0  0  0  0  0  0  0  0  0
   -5.6492  -18.6269   40.8492 C   0  0  0  0  0  0  0  0  0  0  0  0
   -5.1179  -18.8666   42.1270 C   0  0  0  0  0  0  0  0  0  0  0  0
    0.2330  -21.2756   46.2878 N   0  0  0  0  0  0  0  0  0  0  0  0
   -2.0163  -15.9276   50.0924 N   0  0  0  0  0  0  0  0  0  0  0  0
   -5.3035  -19.6024   37.2609 C   0  0  0  0  0  0  0  0  0  0  0  0
   -0.4890  -21.2917   42.5757 O   0  0  0  0  0  0  0  0  0  0  0  0
   -1.5916  -20.7146   42.5104 C   0  0  0  0  0  0  0  0  0  0  0  0
   -2.0927  -20.4852   41.3287 O   0  0  0  0  0  0  0  0  0  0  0  0
   -3.2364  -19.8871   41.1623 C   0  0  0  0  0  0  0  0  0  0  0  0
   -3.7720  -19.6438   39.8939 C   0  0  0  0  0  0  0  0  0  0  0  0
   -5.5316  -18.7537   38.4273 N   0  0  0  0  0  0  0  0  0  0  0  0
   -3.9314  -19.3602   36.6589 C   0  0  0  0  0  0  0  0  0  0  0  0
   -6.3792  -17.5865   38.1485 C   0  0  0  0  0  0  0  0  0  0  0  0
   -7.8029  -17.8778   38.5915 C   0  0  0  0  0  0  0  0  0  0  0  0
   -2.2108  -20.3539   43.6997 C   0  0  0  0  0  0  0  0  0  0  0  0
   -3.4336  -19.7108   43.5763 C   0  0  0  0  0  0  0  0  0  0  0  0
   -4.2532  -19.2188   44.6791 C   0  0  0  0  0  0  0  0  0  0  0  0
   -3.9185  -19.4925   42.2834 C   0  0  0  0  0  0  0  0  0  0  0  0
   -1.6582  -20.6394   45.0233 C   0  0  0  0  0  0  0  0  0  0  0  0
   -0.2657  -21.2783   44.9267 C   0  0  0  0  0  0  0  0  0  0  0  0
   -0.3021  -22.1931   47.2690 C   0  0  0  0  0  0  0  0  0  0  0  0
   -1.2320  -23.0495   47.0671 O   0  0  0  0  0  0  0  0  0  0  0  0
    0.4065  -21.9492   48.4682 N   0  0  0  0  0  0  0  0  0  0  0  0
    1.1875  -20.7218   48.3861 C   0  0  2  0  0  0  0  0  0  0  0  0
    1.2439  -20.5058   46.9173 C   0  0  0  0  0  0  0  0  0  0  0  0
    2.0525  -19.7578   46.2845 O   0  0  0  0  0  0  0  0  0  0  0  0
    2.4899  -20.8178   49.0694 C   0  0  0  0  0  0  0  0  0  0  0  0
    2.8030  -19.4471   49.5708 C   0  0  0  0  0  0  0  0  0  0  0  0
    1.5194  -18.7969   49.6727 N   0  0  0  0  0  0  0  0  0  0  0  0
    0.4924  -19.5564   48.9924 C   0  0  0  0  0  0  0  0  0  0  0  0
    1.2345  -17.5524   50.3484 C   0  0  0  0  0  0  0  0  0  0  0  0
    2.1370  -16.8895   50.9280 O   0  0  0  0  0  0  0  0  0  0  0  0
   -0.1360  -17.0737   50.3468 C   0  0  0  0  0  0  0  0  0  0  0  0
   -1.1505  -17.7564   50.8949 N   0  0  0  0  0  0  0  0  0  0  0  0
   -2.2742  -17.0711   50.7417 C   0  0  0  0  0  0  0  0  0  0  0  0
   -0.6876  -15.9196   49.8410 C   0  0  0  0  0  0  0  0  0  0  0  0
  1  2  2  0
  2  3  1  0
  7  8  2  0
  8  9  1  0
  9 10  1  0
  1 11  1  0
 10 11  2  0
  6 12  1  6
  1 12  1  0
 13  6  1  6
 14 12  1  6
 15 14  1  1
  8 16  1  0
 16 17  2  0
 18 17  1  6
  3 19  2  0
 17 19  1  0
 10 19  1  0
 20 16  1  6
 20 21  1  0
 21  4  1  1
  4 22  1  0
 22 23  2  0
 22 24  1  0
 25 24  1  6
  4 26  1  0
 25 26  1  0
 26 27  2  0
 25 28  1  0
 28 29  1  1
 29 30  1  1
 25 31  1  0
 31 30  1  1
 30 32  1  0
 32 33  2  0
 32 34  1  0
 34 35  1  0
 35 36  2  0
  5 36  1  0
 34 37  2  0
  5 37  1  0
M  END
$$$$
