
     RDKit          3D

 29 30  0  0  0  0  0  0  0  0999 V2000
   25.7345   41.1459   31.3890 C   0  0  0  0  0  0  0  0  0  0  0  0
   26.2108   42.3997   30.6728 C   0  0  2  0  0  0  0  0  0  0  0  0
   26.1347   42.1831   29.2120 N   0  0  0  0  0  0  0  0  0  0  0  0
   27.9358   42.8771   30.9983 P   0  0  2  0  0  5  0  0  0  0  0  0
   28.5255   43.7945   29.9705 O   0  0  0  0  0  0  0  0  0  0  0  0
   28.7156   41.4560   30.9852 O   0  0  0  0  0  0  0  0  0  0  0  0
   28.0944   43.4251   32.6962 C   0  0  0  0  0  0  0  0  0  0  0  0
   29.4876   43.9866   33.0063 C   0  0  2  0  0  0  0  0  0  0  0  0
   30.1258   43.1571   34.1152 C   0  0  0  0  0  0  0  0  0  0  0  0
   31.3361   43.1377   34.3147 O   0  0  0  0  0  0  0  0  0  0  0  0
   29.2288   42.4132   34.8480 N   0  0  0  0  0  0  0  0  0  0  0  0
   29.5904   41.9416   36.1850 C   0  0  1  0  0  0  0  0  0  0  0  0
   29.7408   43.1231   37.1335 C   0  0  0  0  0  0  0  0  0  0  0  0
   28.5281   40.9849   36.7264 C   0  0  0  0  0  0  0  0  0  0  0  0
   28.1219   40.0776   35.8137 O   0  0  0  0  0  0  0  0  0  0  0  0
   28.0878   40.9461   37.8674 O   0  0  0  0  0  0  0  0  0  0  0  0
   29.4091   45.4583   33.4412 C   0  0  0  0  0  0  0  0  0  0  0  0
   30.6434   45.8869   34.2004 C   0  0  0  0  0  0  0  0  0  0  0  0
   31.8384   46.1504   33.5226 C   0  0  0  0  0  0  0  0  0  0  0  0
   32.9911   46.5089   34.2285 C   0  0  0  0  0  0  0  0  0  0  0  0
   32.9833   46.6119   35.6280 C   0  0  0  0  0  0  0  0  0  0  0  0
   31.7771   46.3511   36.2953 C   0  0  0  0  0  0  0  0  0  0  0  0
   30.6210   45.9983   35.5921 C   0  0  0  0  0  0  0  0  0  0  0  0
   34.2000   46.9822   36.3705 C   0  0  0  0  0  0  0  0  0  0  0  0
   35.4293   46.3530   36.1079 C   0  0  0  0  0  0  0  0  0  0  0  0
   36.5847   46.7028   36.8123 C   0  0  0  0  0  0  0  0  0  0  0  0
   36.5312   47.6908   37.7919 C   0  0  0  0  0  0  0  0  0  0  0  0
   35.3240   48.3276   38.0684 C   0  0  0  0  0  0  0  0  0  0  0  0
   34.1692   47.9754   37.3642 C   0  0  0  0  0  0  0  0  0  0  0  0
  2  1  1  1
  2  3  1  0
  2  4  1  0
  4  5  2  0
  4  6  1  1
  4  7  1  0
  8  7  1  1
  8  9  1  0
  9 10  2  0
  9 11  1  0
 11 12  1  0
 12 13  1  1
 12 14  1  0
 14 15  1  0
 14 16  2  0
  8 17  1  0
 17 18  1  0
 18 19  4  0
 19 20  4  0
 20 21  4  0
 21 22  4  0
 18 23  4  0
 22 23  4  0
 21 24  1  0
 24 25  4  0
 25 26  4  0
 26 27  4  0
 27 28  4  0
 24 29  4  0
 28 29  4  0
M  END
