7W6F_8I6_A_201
     RDKit          3D

 44 44  0  0  0  0  0  0  0  0999 V2000
   13.7633   15.3857    5.8324 C   0  0  0  0  0  0  0  0  0  0  0  0
   13.6618   17.3661    7.2698 C   0  0  0  0  0  0  0  0  0  0  0  0
   14.0076   16.0045    7.0893 C   0  0  0  0  0  0  0  0  0  0  0  0
   14.0456   11.6975    8.6824 C   0  0  2  0  0  0  0  0  0  0  0  0
   13.7951   13.1745    8.3933 C   0  0  2  0  0  0  0  0  0  0  0  0
   12.6030   13.7049    9.2028 C   0  0  2  0  0  0  0  0  0  0  0  0
   11.2490   13.4411    8.5212 C   0  0  1  0  0  0  0  0  0  0  0  0
   11.2153   13.7212    7.0056 C   0  0  1  0  0  0  0  0  0  0  0  0
   11.0779   12.4720    6.1173 C   0  0  2  0  0  0  0  0  0  0  0  0
   12.4153   12.0361    5.4914 C   0  0  2  0  0  0  0  0  0  0  0  0
   13.1025   13.1802    4.7169 C   0  0  2  0  0  0  0  0  0  0  0  0
   14.1532   13.9498    5.5379 C   0  0  1  0  0  0  0  0  0  0  0  0
   13.1741   16.1368    4.8003 C   0  0  0  0  0  0  0  0  0  0  0  0
   12.8378   17.4758    4.9902 C   0  0  0  0  0  0  0  0  0  0  0  0
   13.0908   18.0880    6.2186 C   0  0  0  0  0  0  0  0  0  0  0  0
   14.6415   15.2586    8.1947 C   0  0  0  0  0  0  0  0  0  0  0  0
   12.2545   18.1914    3.9466 O   0  0  0  0  0  0  0  0  0  0  0  0
   13.8488   18.0266    8.4868 O   0  0  0  0  0  0  0  0  0  0  0  0
   15.1796   14.1396    7.9817 O   0  0  0  0  0  0  0  0  0  0  0  0
   14.6471   15.7949    9.4789 O   0  0  0  0  0  0  0  0  0  0  0  0
   13.5180   11.3885    9.6097 H   0  0  0  0  0  0  0  0  0  0  0  0
   15.1339   11.5252    8.8192 H   0  0  0  0  0  0  0  0  0  0  0  0
   13.6938   11.0749    7.8338 H   0  0  0  0  0  0  0  0  0  0  0  0
   13.5961   13.2855    7.3064 H   0  0  0  0  0  0  0  0  0  0  0  0
   14.7104   13.7512    8.6493 H   0  0  0  0  0  0  0  0  0  0  0  0
   12.7105   14.8052    9.3237 H   0  0  0  0  0  0  0  0  0  0  0  0
   12.6085   13.2670   10.2204 H   0  0  0  0  0  0  0  0  0  0  0  0
   10.9532   12.3871    8.7086 H   0  0  0  0  0  0  0  0  0  0  0  0
   10.4770   14.0751    9.0093 H   0  0  0  0  0  0  0  0  0  0  0  0
   10.3648   14.4058    6.7954 H   0  0  0  0  0  0  0  0  0  0  0  0
   12.1333   14.2725    6.7112 H   0  0  0  0  0  0  0  0  0  0  0  0
   10.3137   12.6428    5.3337 H   0  0  0  0  0  0  0  0  0  0  0  0
   10.6978   11.6506    6.7631 H   0  0  0  0  0  0  0  0  0  0  0  0
   12.2137   11.2084    4.7761 H   0  0  0  0  0  0  0  0  0  0  0  0
   13.0969   11.6390    6.2737 H   0  0  0  0  0  0  0  0  0  0  0  0
   12.3535   13.8781    4.2877 H   0  0  0  0  0  0  0  0  0  0  0  0
   13.6337   12.7350    3.8472 H   0  0  0  0  0  0  0  0  0  0  0  0
   15.1226   13.9311    4.9990 H   0  0  0  0  0  0  0  0  0  0  0  0
   14.3350   13.3931    6.4835 H   0  0  0  0  0  0  0  0  0  0  0  0
   12.9865   15.6860    3.8333 H   0  0  0  0  0  0  0  0  0  0  0  0
   12.8295   19.1287    6.3649 H   0  0  0  0  0  0  0  0  0  0  0  0
   12.8158   18.6965    3.2710 H   0  0  0  0  0  0  0  0  0  0  0  0
   13.5381   17.6546    9.3746 H   0  0  0  0  0  0  0  0  0  0  0  0
   14.9441   15.2397   10.2724 H   0  0  0  0  0  0  0  0  0  0  0  0
  2  3  1  0
  1  3  2  0
  4  5  1  0
  5  6  1  0
  6  7  1  0
  7  8  1  0
  8  9  1  0
  9 10  1  0
 10 11  1  0
  1 12  1  0
 11 12  1  0
  1 13  1  0
 13 14  2  0
  2 15  2  0
 14 15  1  0
  3 16  1  0
 14 17  1  0
  2 18  1  0
 16 19  2  0
 16 20  1  0
  4 21  1  1
  4 22  1  0
  4 23  1  0
  5 24  1  6
  5 25  1  0
  6 26  1  1
  6 27  1  0
  7 28  1  6
  7 29  1  0
  8 30  1  1
  8 31  1  0
  9 32  1  6
  9 33  1  0
 10 34  1  6
 10 35  1  0
 11 36  1  6
 11 37  1  0
 12 38  1  6
 12 39  1  0
 13 40  1  0
 15 41  1  0
 17 42  1  0
 18 43  1  0
 20 44  1  0
M  END
