1TT1_KAI_A_998
     RDKit          3D

 15 15  0  0  0  0  0  0  0  0999 V2000
   -6.3221   10.3277   10.8611 N   0  0  0  0  0  0  0  0  0  0  0  0
   -7.0130    9.4607   11.7962 C   0  0  0  0  0  0  0  0  0  0  0  0
   -7.4513    7.6813   13.9311 C   0  0  0  0  0  0  0  0  0  0  0  0
   -5.0999    7.2893   14.3809 C   0  0  0  0  0  0  0  0  0  0  0  0
   -5.1192   10.8250   11.5287 C   0  0  1  0  0  0  0  0  0  0  0  0
   -5.1039   10.1676   12.8967 C   0  0  1  0  0  0  0  0  0  0  0  0
   -5.7277   11.1254   13.8385 C   0  0  0  0  0  0  0  0  0  0  0  0
   -5.8357    8.9274   12.5721 C   0  0  1  0  0  0  0  0  0  0  0  0
   -4.7511   12.1621   14.2286 C   0  0  0  0  0  0  0  0  0  0  0  0
   -6.1683    7.9785   13.6129 C   0  0  0  0  0  0  0  0  0  0  0  0
   -3.9006   10.4089   10.7878 C   0  0  0  0  0  0  0  0  0  0  0  0
   -4.0387    9.6192    9.8279 O   0  0  0  0  0  0  0  0  0  0  0  0
   -5.2381   13.2741   14.9228 O   0  0  0  0  0  0  0  0  0  0  0  0
   -3.5272   12.1402   13.9968 O   0  0  0  0  0  0  0  0  0  0  0  0
   -2.6263   10.8372   11.0903 O   0  0  0  0  0  0  0  0  0  0  0  0
  1  2  1  0
  1  5  1  0
  5  6  1  0
  6  7  1  1
  2  8  1  0
  6  8  1  0
  7  9  1  0
  3 10  2  0
  4 10  1  0
  8 10  1  1
  5 11  1  6
 11 12  2  0
  9 13  1  0
  9 14  2  0
 11 15  1  0
M  END
$$$$
