1TT1_KAI_A_998
     RDKit          3D

 15 15  0  0  0  0  0  0  0  0999 V2000
   -1.3126   12.5178   14.3262 N   0  0  0  0  0  0  0  0  0  0  0  0
   -0.0098   12.5239   14.9636 C   0  0  0  0  0  0  0  0  0  0  0  0
    2.1659   11.3032   16.4289 C   0  0  0  0  0  0  0  0  0  0  0  0
    2.5039    9.6710   14.6663 C   0  0  0  0  0  0  0  0  0  0  0  0
   -1.2740   11.5214   13.2558 C   0  0  1  0  0  0  0  0  0  0  0  0
    0.1081   10.8975   13.3215 C   0  0  1  0  0  0  0  0  0  0  0  0
    0.9521   11.6235   12.3449 C   0  0  0  0  0  0  0  0  0  0  0  0
    0.3840   11.0831   14.7597 C   0  0  1  0  0  0  0  0  0  0  0  0
    0.6326   11.1827   10.9721 C   0  0  0  0  0  0  0  0  0  0  0  0
    1.6700   10.7165   15.3129 C   0  0  0  0  0  0  0  0  0  0  0  0
   -2.2863   10.4603   13.4930 C   0  0  0  0  0  0  0  0  0  0  0  0
   -2.4873   10.0943   14.6719 O   0  0  0  0  0  0  0  0  0  0  0  0
    0.9243   12.0678    9.9294 O   0  0  0  0  0  0  0  0  0  0  0  0
    0.1250   10.0908   10.6525 O   0  0  0  0  0  0  0  0  0  0  0  0
   -3.0189    9.8524   12.4968 O   0  0  0  0  0  0  0  0  0  0  0  0
  1  2  1  0
  1  5  1  0
  5  6  1  0
  6  7  1  6
  2  8  1  0
  6  8  1  0
  7  9  1  0
  3 10  2  0
  4 10  1  0
  8 10  1  6
  5 11  1  1
 11 12  2  0
  9 13  1  0
  9 14  2  0
 11 15  1  0
M  END
$$$$
