1TT1_KAI_A_998
     RDKit          3D

 15 15  0  0  0  0  0  0  0  0999 V2000
   -6.8957   16.9909   16.6238 N   0  0  0  0  0  0  0  0  0  0  0  0
   -7.6710   16.4184   17.7076 C   0  0  0  0  0  0  0  0  0  0  0  0
   -6.3337   14.0907   20.2354 C   0  0  0  0  0  0  0  0  0  0  0  0
   -8.1728   15.6475   20.5166 C   0  0  0  0  0  0  0  0  0  0  0  0
   -5.6107   17.4162   17.1790 C   0  0  1  0  0  0  0  0  0  0  0  0
   -5.6422   17.0206   18.6440 C   0  0  1  0  0  0  0  0  0  0  0  0
   -6.0877   18.2138   19.3998 C   0  0  0  0  0  0  0  0  0  0  0  0
   -6.5562   15.8646   18.5580 C   0  0  1  0  0  0  0  0  0  0  0  0
   -4.9184   18.9477   19.9241 C   0  0  0  0  0  0  0  0  0  0  0  0
   -6.9853   15.1783   19.7577 C   0  0  0  0  0  0  0  0  0  0  0  0
   -4.4919   16.6976   16.5166 C   0  0  0  0  0  0  0  0  0  0  0  0
   -3.9406   15.7658   17.1428 O   0  0  0  0  0  0  0  0  0  0  0  0
   -5.1580   20.1776   20.5451 O   0  0  0  0  0  0  0  0  0  0  0  0
   -3.7316   18.5733   19.8655 O   0  0  0  0  0  0  0  0  0  0  0  0
   -4.0214   16.9919   15.2554 O   0  0  0  0  0  0  0  0  0  0  0  0
  1  2  1  0
  1  5  1  0
  5  6  1  0
  6  7  1  1
  2  8  1  0
  6  8  1  0
  7  9  1  0
  3 10  2  0
  4 10  1  0
  8 10  1  1
  5 11  1  6
 11 12  2  0
  9 13  1  0
  9 14  2  0
 11 15  1  0
M  END
$$$$
