1TT1_KAI_A_998
     RDKit          3D

 15 15  0  0  0  0  0  0  0  0999 V2000
   12.2502   18.0397   19.5763 N   0  0  0  0  0  0  0  0  0  0  0  0
   12.6401   18.8775   20.6940 C   0  0  0  0  0  0  0  0  0  0  0  0
   13.2449   19.6749   23.3212 C   0  0  0  0  0  0  0  0  0  0  0  0
   13.0130   17.4627   24.2896 C   0  0  0  0  0  0  0  0  0  0  0  0
   12.7525   16.6914   19.8408 C   0  0  1  0  0  0  0  0  0  0  0  0
   13.4208   16.7590   21.2019 C   0  0  1  0  0  0  0  0  0  0  0  0
   14.8640   16.9860   20.9590 C   0  0  0  0  0  0  0  0  0  0  0  0
   12.6308   17.8532   21.8000 C   0  0  1  0  0  0  0  0  0  0  0  0
   15.5441   15.6997   20.7062 C   0  0  0  0  0  0  0  0  0  0  0  0
   12.9642   18.3661   23.1115 C   0  0  0  0  0  0  0  0  0  0  0  0
   11.6305   15.7201   19.9099 C   0  0  0  0  0  0  0  0  0  0  0  0
   10.4949   16.1554   20.2017 O   0  0  0  0  0  0  0  0  0  0  0  0
   16.8813   15.7496   20.3000 O   0  0  0  0  0  0  0  0  0  0  0  0
   15.0370   14.5676   20.8211 O   0  0  0  0  0  0  0  0  0  0  0  0
   11.7603   14.3689   19.6732 O   0  0  0  0  0  0  0  0  0  0  0  0
  1  2  1  0
  1  5  1  0
  5  6  1  0
  6  7  1  6
  2  8  1  0
  6  8  1  0
  7  9  1  0
  3 10  2  0
  4 10  1  0
  8 10  1  1
  5 11  1  1
 11 12  2  0
  9 13  1  0
  9 14  2  0
 11 15  1  0
M  END
$$$$
