7SUC_COM_a_604
     RDKit          3D

 13 12  0  0  0  0  0  0  0  0999 V2000
   -0.1818   -0.0741   -0.2505 C   0  0  0  0  0  0  0  0  0  0  0  0
    1.0178    0.7927    0.1199 C   0  0  0  0  0  0  0  0  0  0  0  0
   -0.0587   -0.5960   -1.9879 S   0  0  0  0  0  0  0  0  0  0  0  0
    0.9085    1.3423    1.8149 S   0  0  0  0  0  6  0  0  0  0  0  0
    2.1098    2.1851    2.1371 O   0  0  0  0  0  0  0  0  0  0  0  0
   -0.3336    2.1673    2.0077 O   0  0  0  0  0  0  0  0  0  0  0  0
    0.8764    0.0166    2.8498 O   0  0  0  0  0  0  0  0  0  0  0  0
   -0.2107   -0.9789    0.3928 H   0  0  0  0  0  0  0  0  0  0  0  0
   -1.1230    0.5000   -0.1145 H   0  0  0  0  0  0  0  0  0  0  0  0
    1.9550    0.2103   -0.0075 H   0  0  0  0  0  0  0  0  0  0  0  0
    1.0566    1.6836   -0.5426 H   0  0  0  0  0  0  0  0  0  0  0  0
   -1.2656   -1.3180   -1.9235 H   0  0  0  0  0  0  0  0  0  0  0  0
   -0.0640   -0.2943    2.8444 H   0  0  0  0  0  0  0  0  0  0  0  0
  1  2  1  0
  1  3  1  0
  2  4  1  0
  4  5  2  0
  4  6  2  0
  4  7  1  0
  1  8  1  0
  1  9  1  0
  2 10  1  0
  2 11  1  0
  3 12  1  0
  7 13  1  0
M  END
