
     RDKit          3D

 14 14  0  0  0  0  0  0  0  0999 V2000
    2.7379    6.4629  -31.1323 C   0  0  0  0  0  0  0  0  0  0  0  0
    0.9184    4.8718  -31.3293 C   0  0  0  0  0  0  0  0  0  0  0  0
    2.5626    8.6685  -32.1619 N   0  0  0  0  0  0  0  0  0  0  0  0
    2.0231    7.3734  -31.9117 C   0  0  0  0  0  0  0  0  0  0  0  0
    2.1886    5.2097  -30.8448 C   0  0  0  0  0  0  0  0  0  0  0  0
    0.2928    3.5563  -31.0508 C   0  0  0  0  0  0  0  0  0  0  0  0
    0.2018    5.7978  -32.0990 C   0  0  0  0  0  0  0  0  0  0  0  0
    1.0761    9.5012  -30.0893 C   0  0  0  0  0  0  0  0  0  0  0  0
    0.7516    7.0506  -32.3838 C   0  0  0  0  0  0  0  0  0  0  0  0
   -0.8903    3.3604  -30.8434 O   0  0  0  0  0  0  0  0  0  0  0  0
    1.1798    2.5460  -31.0504 O   0  0  0  0  0  0  0  0  0  0  0  0
    1.6074    9.9959  -31.7133 S   0  0  1  0  0  6  0  0  0  0  0  0
    2.4183   11.1868  -31.6027 O   0  0  0  0  0  0  0  0  0  0  0  0
    0.4532    9.9455  -32.5859 O   0  0  0  0  0  0  0  0  0  0  0  0
  1  4  4  0
  3  4  1  0
  1  5  4  0
  2  5  4  0
  2  6  1  0
  2  7  4  0
  4  9  4  0
  7  9  4  0
  6 10  2  0
  6 11  1  0
  3 12  1  0
 12  8  1  1
 12 13  2  0
 12 14  2  0
M  END
