7T2I_E9F_A_1705
     RDKit          3D

 53 57  0  0  0  0  0  0  0  0999 V2000
 -128.1936 -171.7942  118.6902 C   0  0  2  0  0  0  0  0  0  0  0  0
 -130.3811 -170.4766  118.7452 C   0  0  0  0  0  0  0  0  0  0  0  0
 -131.3352 -172.4596  115.1431 C   0  0  0  0  0  0  0  0  0  0  0  0
 -134.4118 -172.6511  112.9739 C   0  0  0  0  0  0  0  0  0  0  0  0
 -135.0767 -172.7559  115.2509 C   0  0  0  0  0  0  0  0  0  0  0  0
 -133.8477 -172.7502  117.1104 C   0  0  0  0  0  0  0  0  0  0  0  0
 -125.0614 -171.6301  113.6133 C   0  0  0  0  0  0  0  0  0  0  0  0
 -127.8527 -172.6053  113.6986 C   0  0  2  0  0  0  0  0  0  0  0  0
 -127.8957 -173.2181  112.3225 C   0  0  0  0  0  0  0  0  0  0  0  0
 -126.9955 -173.8256  113.4198 C   0  0  0  0  0  0  0  0  0  0  0  0
 -129.0054 -172.4298  114.6924 C   0  0  0  0  0  0  0  0  0  0  0  0
 -129.8373 -171.9374  116.7771 C   0  0  0  0  0  0  0  0  0  0  0  0
 -128.0881 -173.1022  119.4387 C   0  0  0  0  0  0  0  0  0  0  0  0
 -127.8501 -170.9028  119.8878 C   0  0  0  0  0  0  0  0  0  0  0  0
 -129.8262 -169.7778  119.9763 C   0  0  0  0  0  0  0  0  0  0  0  0
 -132.7818 -172.6125  114.7029 C   0  0  0  0  0  0  0  0  0  0  0  0
 -133.0658 -172.5614  113.3179 C   0  0  0  0  0  0  0  0  0  0  0  0
 -133.7957 -172.6939  115.6871 C   0  0  0  0  0  0  0  0  0  0  0  0
 -135.1670 -172.8358  117.4828 C   0  0  0  0  0  0  0  0  0  0  0  0
 -130.3053 -172.5689  114.2085 C   0  0  0  0  0  0  0  0  0  0  0  0
 -127.2856 -170.2416  114.9635 N   0  0  0  0  0  0  0  0  0  0  0  0
 -128.8084 -172.1110  115.9639 N   0  0  0  0  0  0  0  0  0  0  0  0
 -129.5442 -171.5947  118.1572 N   0  0  0  0  0  0  0  0  0  0  0  0
 -131.1082 -172.0997  116.4074 N   0  0  0  0  0  0  0  0  0  0  0  0
 -135.3645 -172.7336  113.9156 N   0  0  0  0  0  0  0  0  0  0  0  0
 -135.8842 -172.8472  116.3467 N   0  0  0  0  0  4  0  0  0  0  0  0
 -128.9756 -170.6704  120.6400 O   0  0  0  0  0  0  0  0  0  0  0  0
 -126.8159 -170.1477  112.7968 O   0  0  0  0  0  0  0  0  0  0  0  0
 -126.7897 -171.1301  113.8426 S   0  0  1  0  0  6  0  0  0  0  0  0
 -127.5930 -171.6528  117.8160 H   0  0  0  0  0  0  0  0  0  0  0  0
 -130.5117 -169.7359  117.9842 H   0  0  0  0  0  0  0  0  0  0  0  0
 -131.2842 -170.9469  119.0741 H   0  0  0  0  0  0  0  0  0  0  0  0
 -134.6816 -172.6542  111.9779 H   0  0  0  0  0  0  0  0  0  0  0  0
 -133.0370 -172.7303  117.7487 H   0  0  0  0  0  0  0  0  0  0  0  0
 -124.9828 -172.2557  112.7489 H   0  0  0  0  0  0  0  0  0  0  0  0
 -124.7288 -172.1694  114.4755 H   0  0  0  0  0  0  0  0  0  0  0  0
 -124.4531 -170.7599  113.4802 H   0  0  0  0  0  0  0  0  0  0  0  0
 -127.4569 -172.7040  111.4929 H   0  0  0  0  0  0  0  0  0  0  0  0
 -128.6672 -173.5907  111.6817 H   0  0  0  0  0  0  0  0  0  0  0  0
 -127.2446 -174.7693  113.8582 H   0  0  0  0  0  0  0  0  0  0  0  0
 -125.9560 -174.0633  113.5080 H   0  0  0  0  0  0  0  0  0  0  0  0
 -128.7472 -173.0849  120.2814 H   0  0  0  0  0  0  0  0  0  0  0  0
 -127.0819 -173.2402  119.7755 H   0  0  0  0  0  0  0  0  0  0  0  0
 -128.3605 -173.9077  118.7893 H   0  0  0  0  0  0  0  0  0  0  0  0
 -127.4611 -169.9704  119.5351 H   0  0  0  0  0  0  0  0  0  0  0  0
 -127.1189 -171.3958  120.4937 H   0  0  0  0  0  0  0  0  0  0  0  0
 -130.6291 -169.4931  120.6238 H   0  0  0  0  0  0  0  0  0  0  0  0
 -129.2885 -168.8978  119.6909 H   0  0  0  0  0  0  0  0  0  0  0  0
 -132.3230 -172.4638  112.6083 H   0  0  0  0  0  0  0  0  0  0  0  0
 -135.5350 -172.8821  118.4458 H   0  0  0  0  0  0  0  0  0  0  0  0
 -130.4961 -172.7438  113.2095 H   0  0  0  0  0  0  0  0  0  0  0  0
 -126.8163 -169.4010  115.1697 H   0  0  0  0  0  0  0  0  0  0  0  0
 -136.8658 -172.9129  116.3097 H   0  0  0  0  0  0  0  0  0  0  0  0
  8  9  1  0
  8 10  1  0
  9 10  1  0
  8 11  1  1
  1 13  1  0
  1 14  1  0
  2 15  1  0
  3 16  1  0
 16 17  4  0
  4 17  4  0
  6 18  4  0
  5 18  4  0
 16 18  4  0
  6 19  4  0
  3 20  4  0
 11 20  4  0
 12 22  4  0
 11 22  4  0
  1 23  1  0
  2 23  1  0
 12 23  1  0
 12 24  4  0
  3 24  4  0
  5 25  4  0
  4 25  4  0
 19 26  4  0
  5 26  4  0
 14 27  1  0
 15 27  1  0
 28 29  2  0
 29  7  1  1
  8 29  1  0
 21 29  2  0
  1 30  1  6
  2 31  1  0
  2 32  1  0
  4 33  1  0
  6 34  1  0
  7 35  1  0
  7 36  1  0
  7 37  1  0
  9 38  1  0
  9 39  1  0
 10 40  1  0
 10 41  1  0
 13 42  1  0
 13 43  1  0
 13 44  1  0
 14 45  1  0
 14 46  1  0
 15 47  1  0
 15 48  1  0
 17 49  1  0
 19 50  1  0
 20 51  1  0
 21 52  1  0
 26 53  1  0
M  CHG  1  26   1
M  END
