7T2I_E9F_A_1705
     RDKit          3D

 53 57  0  0  0  0  0  0  0  0999 V2000
   -2.6678   -1.1793   -2.3078 C   0  0  2  0  0  0  0  0  0  0  0  0
   -0.4848   -1.7473   -3.4596 C   0  0  0  0  0  0  0  0  0  0  0  0
    1.5929   -0.6414    0.0508 C   0  0  0  0  0  0  0  0  0  0  0  0
    5.0173   -2.1865   -0.5360 C   0  0  0  0  0  0  0  0  0  0  0  0
    5.3015   -0.1688    0.6258 C   0  0  0  0  0  0  0  0  0  0  0  0
    3.7737    1.2988    1.2370 C   0  0  0  0  0  0  0  0  0  0  0  0
   -2.7799   -2.0303    2.6046 C   0  0  0  0  0  0  0  0  0  0  0  0
   -1.2503    0.4256    2.3182 C   0  0  0  0  0  0  0  0  0  0  0  0
   -2.1872    1.6070    2.1076 C   0  0  0  0  0  0  0  0  0  0  0  0
   -0.8965    1.7868    2.9000 C   0  0  0  0  0  0  0  0  0  0  0  0
   -0.4721   -0.0181    1.1165 C   0  0  0  0  0  0  0  0  0  0  0  0
   -0.4681   -0.7972   -1.1236 C   0  0  0  0  0  0  0  0  0  0  0  0
   -3.1521   -2.5159   -1.7333 C   0  0  0  0  0  0  0  0  0  0  0  0
   -3.2187   -0.9517   -3.7266 C   0  0  0  0  0  0  0  0  0  0  0  0
   -1.2270   -1.4701   -4.7700 C   0  0  0  0  0  0  0  0  0  0  0  0
    3.0572   -0.8467    0.0598 C   0  0  0  0  0  0  0  0  0  0  0  0
    3.6193   -1.9894   -0.5502 C   0  0  0  0  0  0  0  0  0  0  0  0
    3.9529    0.0643    0.6392 C   0  0  0  0  0  0  0  0  0  0  0  0
    5.0516    1.7384    1.5708 C   0  0  0  0  0  0  0  0  0  0  0  0
    0.9125   -0.1885    1.1876 C   0  0  0  0  0  0  0  0  0  0  0  0
   -2.6475   -0.2084    4.6204 N   0  0  0  0  0  0  0  0  0  0  0  0
   -1.1298   -0.3349   -0.0285 N   0  0  0  0  0  0  0  0  0  0  0  0
   -1.1945   -1.1394   -2.3240 N   0  0  0  0  0  0  0  0  0  0  0  0
    0.8839   -0.9471   -1.0689 N   0  0  0  0  0  0  0  0  0  0  0  0
    5.8424   -1.2708    0.0510 N   0  0  0  0  0  0  0  0  0  0  0  0
    5.9846    0.8354    1.1941 N   0  0  0  0  0  0  0  0  0  0  0  0
   -2.5937   -1.8116   -4.6586 O   0  0  0  0  0  0  0  0  0  0  0  0
   -0.5926   -1.5139    4.0613 O   0  0  0  0  0  0  0  0  0  0  0  0
   -1.7962   -0.8304    3.4750 S   0  0  1  0  0  6  0  0  0  0  0  0
   -3.0646   -0.3599   -1.6687 H   0  0  0  0  0  0  0  0  0  0  0  0
    0.5421   -1.3326   -3.5521 H   0  0  0  0  0  0  0  0  0  0  0  0
   -0.4095   -2.8442   -3.2979 H   0  0  0  0  0  0  0  0  0  0  0  0
    5.4405   -3.0685   -0.9978 H   0  0  0  0  0  0  0  0  0  0  0  0
    2.8476    1.8356    1.3908 H   0  0  0  0  0  0  0  0  0  0  0  0
   -2.1539   -2.5424    1.8451 H   0  0  0  0  0  0  0  0  0  0  0  0
   -3.6265   -1.5208    2.0997 H   0  0  0  0  0  0  0  0  0  0  0  0
   -3.1735   -2.7800    3.3214 H   0  0  0  0  0  0  0  0  0  0  0  0
   -2.1553    2.0833    1.1040 H   0  0  0  0  0  0  0  0  0  0  0  0
   -3.1016    1.6294    2.7365 H   0  0  0  0  0  0  0  0  0  0  0  0
   -0.1176    2.3603    2.3528 H   0  0  0  0  0  0  0  0  0  0  0  0
   -1.0551    1.9061    3.9923 H   0  0  0  0  0  0  0  0  0  0  0  0
   -2.7536   -2.6551   -0.7066 H   0  0  0  0  0  0  0  0  0  0  0  0
   -4.2614   -2.5312   -1.6794 H   0  0  0  0  0  0  0  0  0  0  0  0
   -2.8096   -3.3623   -2.3657 H   0  0  0  0  0  0  0  0  0  0  0  0
   -4.3120   -1.1491   -3.7391 H   0  0  0  0  0  0  0  0  0  0  0  0
   -3.0930    0.1162   -4.0201 H   0  0  0  0  0  0  0  0  0  0  0  0
   -0.7735   -2.0892   -5.5724 H   0  0  0  0  0  0  0  0  0  0  0  0
   -1.0992   -0.4053   -5.0727 H   0  0  0  0  0  0  0  0  0  0  0  0
    2.9845   -2.7301   -1.0207 H   0  0  0  0  0  0  0  0  0  0  0  0
    5.2836    2.6807    2.0493 H   0  0  0  0  0  0  0  0  0  0  0  0
    1.4379    0.0039    2.1148 H   0  0  0  0  0  0  0  0  0  0  0  0
   -2.3452   -0.2931    5.6011 H   0  0  0  0  0  0  0  0  0  0  0  0
    7.0198    0.9159    1.3027 H   0  0  0  0  0  0  0  0  0  0  0  0
  8  9  1  0
  8 10  1  0
  9 10  1  0
  8 11  1  0
  1 13  1  0
  1 14  1  0
  2 15  1  0
  3 16  1  0
 16 17  1  0
  4 17  2  0
  6 18  1  0
  5 18  1  0
 16 18  2  0
  6 19  2  0
  3 20  2  0
 11 20  1  0
 12 22  1  0
 11 22  2  0
  1 23  1  0
  2 23  1  0
 12 23  1  0
 12 24  2  0
  3 24  1  0
  5 25  2  0
  4 25  1  0
 19 26  1  0
  5 26  1  0
 14 27  1  0
 15 27  1  0
 28 29  2  0
 29  7  1  6
  8 29  1  0
 21 29  2  0
  1 30  1  1
  2 31  1  0
  2 32  1  0
  4 33  1  0
  6 34  1  0
  7 35  1  0
  7 36  1  0
  7 37  1  0
  9 38  1  0
  9 39  1  0
 10 40  1  0
 10 41  1  0
 13 42  1  0
 13 43  1  0
 13 44  1  0
 14 45  1  0
 14 46  1  0
 15 47  1  0
 15 48  1  0
 17 49  1  0
 19 50  1  0
 20 51  1  0
 21 52  1  0
 26 53  1  0
M  END
