7XI7_4RI_A_201
     RDKit          3D

 20 21  0  0  0  0  0  0  0  0999 V2000
  -15.7048  -27.8286   -5.4706 C   0  0  0  0  0  0  0  0  0  0  0  0
  -14.5302  -27.7166   -6.1802 C   0  0  0  0  0  0  0  0  0  0  0  0
  -14.1398  -26.5164   -6.7606 C   0  0  0  0  0  0  0  0  0  0  0  0
  -14.9475  -25.4285   -6.6179 N   0  0  0  0  0  0  0  0  0  0  0  0
  -16.4532  -26.6987   -5.3750 N   0  0  0  0  0  0  0  0  0  0  0  0
  -16.1556  -32.5916   -0.9054 C   0  0  0  0  0  0  0  0  0  0  0  0
  -17.1209  -32.0620   -1.9313 C   0  0  0  0  0  0  0  0  0  0  0  0
  -16.7320  -30.6964   -2.4626 C   0  0  0  0  0  0  0  0  0  0  0  0
  -17.7654  -30.3090   -3.4926 C   0  0  0  0  0  0  0  0  0  0  0  0
  -17.4811  -28.9295   -4.0874 C   0  0  0  0  0  0  0  0  0  0  0  0
  -16.1742  -29.0514   -4.8199 C   0  0  0  0  0  0  0  0  0  0  0  0
  -16.0967  -25.5353   -5.9249 C   0  0  0  0  0  0  0  0  0  0  0  0
  -16.9265  -24.3752   -5.7894 N   0  0  0  0  0  0  0  0  0  0  0  0
  -12.9122  -26.4283   -7.4904 N   0  0  0  0  0  0  0  0  0  0  0  0
  -13.6363  -28.8448   -6.3685 C   0  0  0  0  0  0  0  0  0  0  0  0
  -13.9562  -29.7110   -7.4219 C   0  0  0  0  0  0  0  0  0  0  0  0
  -13.1638  -30.8136   -7.7115 C   0  0  0  0  0  0  0  0  0  0  0  0
  -12.0295  -31.0628   -6.9400 C   0  0  0  0  0  0  0  0  0  0  0  0
  -11.7384  -30.1888   -5.9048 C   0  0  0  0  0  0  0  0  0  0  0  0
  -12.5174  -29.0911   -5.6076 C   0  0  0  0  0  0  0  0  0  0  0  0
  1  2  2  0
  2  3  1  0
  3  4  2  0
  1  5  1  0
  6  7  1  0
  7  8  1  0
  8  9  1  0
  9 10  1  0
 10 11  1  0
  1 11  1  0
  5 12  2  0
  4 12  1  0
 12 13  1  0
  3 14  1  0
  2 15  1  0
 15 16  2  0
 16 17  1  0
 17 18  2  0
 18 19  1  0
 15 20  1  0
 19 20  2  0
M  END
$$$$
