7XQZ_FPF_A_601
     RDKit          3D

 52 51  0  0  0  0  0  0  0  0999 V2000
   -5.5794    4.8368   -1.6564 C   0  0  0  0  0  0  0  0  0  0  0  0
   -4.9229    3.8177   -0.9396 O   0  0  0  0  0  0  0  0  0  0  0  0
   -4.6290    5.4032   -2.6772 C   0  0  0  0  0  0  0  0  0  0  0  0
   -3.4084    5.8100   -2.2315 F   0  0  0  0  0  0  0  0  0  0  0  0
   -4.9372    5.5033   -3.9949 C   0  0  0  0  0  0  0  0  0  0  0  0
   -6.2891    5.0756   -4.5200 C   0  0  0  0  0  0  0  0  0  0  0  0
   -3.9007    5.9870   -4.9947 C   0  0  0  0  0  0  0  0  0  0  0  0
   -3.8013    5.0406   -6.2002 C   0  0  0  0  0  0  0  0  0  0  0  0
   -4.7657    3.8832   -6.0813 C   0  0  0  0  0  0  0  0  0  0  0  0
   -5.8468    3.8862   -5.2713 C   0  0  0  0  0  0  0  0  0  0  0  0
   -6.2202    5.1016   -4.4561 C   0  0  0  0  0  0  0  0  0  0  0  0
   -6.6860    2.6287   -5.1566 C   0  0  0  0  0  0  0  0  0  0  0  0
   -7.6181    2.6688   -3.9350 C   0  0  0  0  0  0  0  0  0  0  0  0
   -7.1538    3.6732   -2.9060 C   0  0  0  0  0  0  0  0  0  0  0  0
   -6.4500    4.7901   -3.1883 C   0  0  0  0  0  0  0  0  0  0  0  0
   -6.0998    5.1773   -4.6049 C   0  0  0  0  0  0  0  0  0  0  0  0
   -6.0231    5.6760   -2.0471 C   0  0  0  0  0  0  0  0  0  0  0  0
   -4.2947    2.6785   -2.0445 P   0  0  2  0  0  5  0  0  0  0  0  0
   -5.1295    1.4194   -1.9789 O   0  0  0  0  0  0  0  0  0  0  0  0
   -2.6889    2.2808   -1.6667 O   0  0  0  0  0  0  0  0  0  0  0  0
   -4.4161    3.3062   -3.6232 O   0  0  0  0  0  0  0  0  0  0  0  0
   -5.7387    4.3777   -3.6679 P   0  0  2  0  0  5  0  0  0  0  0  0
   -5.6763    5.3606   -2.2919 O   0  0  0  0  0  0  0  0  0  0  0  0
   -7.1856    3.4989   -3.6470 O   0  0  0  0  0  0  0  0  0  0  0  0
   -5.6927    5.2560   -4.8999 O   0  0  0  0  0  0  0  0  0  0  0  0
   -6.4959    4.4795   -2.1784 H   0  0  0  0  0  0  0  0  0  0  0  0
   -5.8689    5.6526   -0.9594 H   0  0  0  0  0  0  0  0  0  0  0  0
   -6.4518    3.9950   -4.3250 H   0  0  0  0  0  0  0  0  0  0  0  0
   -7.0929    5.6687   -4.0362 H   0  0  0  0  0  0  0  0  0  0  0  0
   -6.3624    5.2404   -5.6156 H   0  0  0  0  0  0  0  0  0  0  0  0
   -4.1954    6.9958   -5.3557 H   0  0  0  0  0  0  0  0  0  0  0  0
   -2.8973    6.1038   -4.5308 H   0  0  0  0  0  0  0  0  0  0  0  0
   -4.0033    5.6260   -7.1217 H   0  0  0  0  0  0  0  0  0  0  0  0
   -2.7679    4.6398   -6.2704 H   0  0  0  0  0  0  0  0  0  0  0  0
   -4.5575    2.9903   -6.6650 H   0  0  0  0  0  0  0  0  0  0  0  0
   -5.4353    5.3038   -3.6978 H   0  0  0  0  0  0  0  0  0  0  0  0
   -7.1786    4.9515   -3.9171 H   0  0  0  0  0  0  0  0  0  0  0  0
   -6.3342    5.9840   -5.1201 H   0  0  0  0  0  0  0  0  0  0  0  0
   -6.0128    1.7482   -5.0708 H   0  0  0  0  0  0  0  0  0  0  0  0
   -7.2941    2.4751   -6.0725 H   0  0  0  0  0  0  0  0  0  0  0  0
   -7.6447    1.6661   -3.4575 H   0  0  0  0  0  0  0  0  0  0  0  0
   -8.6567    2.8811   -4.2640 H   0  0  0  0  0  0  0  0  0  0  0  0
   -7.3853    3.4483   -1.8673 H   0  0  0  0  0  0  0  0  0  0  0  0
   -5.4920    6.1053   -4.6339 H   0  0  0  0  0  0  0  0  0  0  0  0
   -5.5110    4.3716   -5.0890 H   0  0  0  0  0  0  0  0  0  0  0  0
   -7.0275    5.3613   -5.1863 H   0  0  0  0  0  0  0  0  0  0  0  0
   -6.9167    6.0275   -1.4896 H   0  0  0  0  0  0  0  0  0  0  0  0
   -5.3660    5.1061   -1.3564 H   0  0  0  0  0  0  0  0  0  0  0  0
   -5.4651    6.5666   -2.4039 H   0  0  0  0  0  0  0  0  0  0  0  0
   -2.2813    3.1191   -1.3334 H   0  0  0  0  0  0  0  0  0  0  0  0
   -6.4422    5.9810   -2.3874 H   0  0  0  0  0  0  0  0  0  0  0  0
   -7.8986    4.1813   -3.7301 H   0  0  0  0  0  0  0  0  0  0  0  0
  1  2  1  0
  1  3  1  0
  3  4  1  0
  3  5  2  3
  5  6  1  0
  5  7  1  0
  7  8  1  0
  8  9  1  0
  9 10  2  3
 10 11  1  0
 10 12  1  0
 12 13  1  0
 13 14  1  0
 14 15  2  3
 15 16  1  0
 15 17  1  0
 18  2  1  6
 18 19  2  0
 18 20  1  0
 18 21  1  0
 22 21  1  1
 22 23  1  0
 22 24  1  0
 22 25  2  0
  1 26  1  0
  1 27  1  0
  6 28  1  0
  6 29  1  0
  6 30  1  0
  7 31  1  0
  7 32  1  0
  8 33  1  0
  8 34  1  0
  9 35  1  0
 11 36  1  0
 11 37  1  0
 11 38  1  0
 12 39  1  0
 12 40  1  0
 13 41  1  0
 13 42  1  0
 14 43  1  0
 16 44  1  0
 16 45  1  0
 16 46  1  0
 17 47  1  0
 17 48  1  0
 17 49  1  0
 20 50  1  0
 23 51  1  0
 24 52  1  0
M  END
