1N2J_PAF_A_1001
     RDKit          3D

 21 20  0  0  0  0  0  0  0  0999 V2000
   26.1850   17.6191   64.0674 O   0  0  0  0  0  1  0  0  0  0  0  0
   26.9197   18.4368   64.9180 C   0  0  0  0  0  0  0  0  0  0  0  0
   27.7416   19.2558   64.4280 O   0  0  0  0  0  0  0  0  0  0  0  0
   26.7233   18.3672   66.4159 C   0  0  2  0  0  0  0  0  0  0  0  0
   26.4818   17.0397   66.8172 O   0  0  0  0  0  0  0  0  0  0  0  0
   25.6366   19.3641   66.9586 C   0  0  1  0  0  0  0  0  0  0  0  0
   26.0353   20.8121   66.5856 C   0  0  2  0  0  0  0  0  0  0  0  0
   24.2348   19.0820   66.3664 C   0  0  2  0  0  0  0  0  0  0  0  0
   25.5663   19.2823   68.5075 C   0  0  1  0  0  0  0  0  0  0  0  0
   25.0615   18.0439   68.9301 O   0  0  0  0  0  0  0  0  0  0  0  0
   27.6941   18.6556   66.8777 H   0  0  0  0  0  0  0  0  0  0  0  0
   25.5624   16.9855   67.1842 H   0  0  0  0  0  0  0  0  0  0  0  0
   27.0499   21.0523   66.9705 H   0  0  0  0  0  0  0  0  0  0  0  0
   25.3192   21.5439   67.0187 H   0  0  0  0  0  0  0  0  0  0  0  0
   26.0349   20.9576   65.4845 H   0  0  0  0  0  0  0  0  0  0  0  0
   23.8711   18.0695   66.6366 H   0  0  0  0  0  0  0  0  0  0  0  0
   24.2429   19.1703   65.2600 H   0  0  0  0  0  0  0  0  0  0  0  0
   23.4964   19.8162   66.7556 H   0  0  0  0  0  0  0  0  0  0  0  0
   26.5821   19.4344   68.9388 H   0  0  0  0  0  0  0  0  0  0  0  0
   24.9074   20.0910   68.8992 H   0  0  0  0  0  0  0  0  0  0  0  0
   24.0989   18.0402   68.6885 H   0  0  0  0  0  0  0  0  0  0  0  0
  1  2  1  0
  2  3  2  0
  2  4  1  0
  4  5  1  0
  6  4  1  6
  6  7  1  0
  6  8  1  0
  6  9  1  0
  9 10  1  0
  4 11  1  1
  5 12  1  0
  7 13  1  1
  7 14  1  0
  7 15  1  0
  8 16  1  6
  8 17  1  0
  8 18  1  0
  9 19  1  1
  9 20  1  0
 10 21  1  0
M  CHG  1   1  -1
M  END
