7EPV_FDA_A_401
     RDKit          3D

 53 58  0  0  0  0  0  0  0  0999 V2000
    7.7727  -33.7917   -5.7045 P   0  0  2  0  0  0  0  0  0  0  0  0
    6.9980  -32.5753   -5.4548 O   0  0  0  0  0  0  0  0  0  0  0  0
    8.3436  -34.4352   -4.5384 O   0  0  0  0  0  0  0  0  0  0  0  0
    8.9025  -33.5251   -6.7715 O   0  0  0  0  0  0  0  0  0  0  0  0
    8.7131  -32.5596   -7.8047 C   0  0  0  0  0  0  0  0  0  0  0  0
   10.0600  -32.0374   -8.2287 C   0  0  1  0  0  0  0  0  0  0  0  0
    9.9249  -31.0800   -9.2989 O   0  0  0  0  0  0  0  0  0  0  0  0
   10.8552  -31.3509   -7.1110 C   0  0  1  0  0  0  0  0  0  0  0  0
   12.1921  -31.7989   -7.0680 O   0  0  0  0  0  0  0  0  0  0  0  0
   10.6898  -29.8616   -7.4621 C   0  0  1  0  0  0  0  0  0  0  0  0
   11.7547  -29.0874   -6.9983 O   0  0  0  0  0  0  0  0  0  0  0  0
   10.6395  -29.9085   -8.9842 C   0  0  2  0  0  0  0  0  0  0  0  0
    9.9914  -28.7911   -9.6369 N   0  0  0  0  0  0  0  0  0  0  0  0
    8.9781  -28.0190   -9.1660 C   0  0  0  0  0  0  0  0  0  0  0  0
    8.5474  -27.1311  -10.0292 N   0  0  0  0  0  0  0  0  0  0  0  0
    9.3077  -27.3644  -11.1590 C   0  0  0  0  0  0  0  0  0  0  0  0
    9.3353  -26.7732  -12.4349 C   0  0  0  0  0  0  0  0  0  0  0  0
    8.5243  -25.7971  -12.8095 N   0  0  0  0  0  0  0  0  0  0  0  0
   10.2037  -27.2769  -13.3307 N   0  0  0  0  0  0  0  0  0  0  0  0
   10.9945  -28.2824  -12.9691 C   0  0  0  0  0  0  0  0  0  0  0  0
   11.0650  -28.8922  -11.7989 N   0  0  0  0  0  0  0  0  0  0  0  0
   10.1890  -28.3935  -10.9283 C   0  0  0  0  0  0  0  0  0  0  0  0
    2.3374  -30.5729   -0.2417 N   0  0  0  0  0  0  0  0  0  0  0  0
    1.4830  -30.4836    0.7330 C   0  0  0  0  0  0  0  0  0  0  0  0
    0.4541  -31.0887    0.6876 O   0  0  0  0  0  0  0  0  0  0  0  0
    1.7450  -29.7308    1.8444 N   0  0  0  0  0  0  0  0  0  0  0  0
    2.9043  -29.0037    1.9778 C   0  0  0  0  0  0  0  0  0  0  0  0
    3.1093  -28.3518    2.9842 O   0  0  0  0  0  0  0  0  0  0  0  0
    3.8011  -29.0355    0.9286 C   0  0  0  0  0  0  0  0  0  0  0  0
    4.8916  -28.3399    1.0014 N   0  0  0  0  0  0  0  0  0  0  0  0
    5.7140  -28.3457   -0.0859 C   0  0  0  0  0  0  0  0  0  0  0  0
    6.8687  -27.5463   -0.0594 C   0  0  0  0  0  0  0  0  0  0  0  0
    7.7087  -27.4842   -1.1364 C   0  0  0  0  0  0  0  0  0  0  0  0
    8.9213  -26.5884   -1.1087 C   0  0  0  0  0  0  0  0  0  0  0  0
    7.4444  -28.2871   -2.2712 C   0  0  0  0  0  0  0  0  0  0  0  0
    8.3725  -28.2705   -3.4505 C   0  0  0  0  0  0  0  0  0  0  0  0
    6.3460  -29.1204   -2.2828 C   0  0  0  0  0  0  0  0  0  0  0  0
    5.4512  -29.1506   -1.2089 C   0  0  0  0  0  0  0  0  0  0  0  0
    4.3019  -29.9296   -1.2015 N   0  0  0  0  0  0  0  0  0  0  0  0
    3.4298  -29.8666   -0.1811 C   0  0  0  0  0  0  0  0  0  0  0  0
    3.9434  -30.7721   -2.3459 C   0  0  0  0  0  0  0  0  0  0  0  0
    3.9024  -32.2429   -1.9443 C   0  0  2  0  0  0  0  0  0  0  0  0
    4.9838  -32.5398   -1.1089 O   0  0  0  0  0  0  0  0  0  0  0  0
    3.9038  -33.1241   -3.1996 C   0  0  2  0  0  0  0  0  0  0  0  0
    2.6160  -33.5567   -3.5269 O   0  0  0  0  0  0  0  0  0  0  0  0
    4.7859  -34.3616   -3.1343 C   0  0  2  0  0  0  0  0  0  0  0  0
    6.1594  -34.0066   -3.0612 O   0  0  0  0  0  0  0  0  0  0  0  0
    4.5501  -35.2260   -4.3550 C   0  0  0  0  0  0  0  0  0  0  0  0
    5.7039  -35.9820   -4.5763 O   0  0  0  0  0  0  0  0  0  0  0  0
    6.2569  -36.1931   -6.0291 P   0  0  1  0  0  0  0  0  0  0  0  0
    7.3715  -37.0971   -5.8797 O   0  0  0  0  0  0  0  0  0  0  0  0
    5.1715  -36.5210   -6.9337 O   0  0  0  0  0  0  0  0  0  0  0  0
    6.7830  -34.7723   -6.4274 O   0  0  0  0  0  0  0  0  0  0  0  0
  1  2  2  0
  1  3  1  1
  1  4  1  0
  4  5  1  0
  6  5  1  1
  6  7  1  0
  6  8  1  0
  8  9  1  6
  8 10  1  0
 10 11  1  6
  7 12  1  0
 10 12  1  0
 12 13  1  1
 13 14  1  0
 14 15  2  0
 15 16  1  0
 16 17  2  0
 17 18  1  0
 17 19  1  0
 19 20  2  0
 20 21  1  0
 13 22  1  0
 16 22  1  0
 21 22  2  0
 23 24  1  0
 24 25  2  0
 24 26  1  0
 26 27  1  0
 27 28  2  0
 27 29  1  0
 29 30  1  0
 30 31  1  0
 31 32  2  0
 32 33  1  0
 33 34  1  0
 33 35  2  0
 35 36  1  0
 35 37  1  0
 31 38  1  0
 37 38  2  0
 38 39  1  0
 23 40  1  0
 29 40  2  0
 39 40  1  0
 39 41  1  0
 41 42  1  0
 42 43  1  1
 42 44  1  0
 44 45  1  1
 44 46  1  0
 46 47  1  6
 46 48  1  0
 48 49  1  0
 49 50  1  0
 50 51  2  0
 50 52  1  6
  1 53  1  0
 50 53  1  0
M  END
