8FO5_Y4U_A_301
     RDKit          3D

 28 29  0  0  0  0  0  0  0  0999 V2000
   24.5488   -8.4947  -22.2128 O   0  0  0  0  0  0  0  0  0  0  0  0
   23.6457   -3.1728  -26.0057 O   0  0  0  0  0  0  0  0  0  0  0  0
   21.3865   -2.0343  -23.0924 C   0  0  0  0  0  0  0  0  0  0  0  0
   20.0529   -2.0293  -22.7280 C   0  0  0  0  0  0  0  0  0  0  0  0
   19.1093   -2.6319  -23.5279 C   0  0  0  0  0  0  0  0  0  0  0  0
   19.4887   -3.2410  -24.7000 C   0  0  0  0  0  0  0  0  0  0  0  0
   20.8175   -3.2748  -25.0780 C   0  0  0  0  0  0  0  0  0  0  0  0
   24.5972   -4.2200  -22.5502 C   0  0  0  0  0  0  0  0  0  0  0  0
   24.6776   -5.4996  -22.0954 C   0  0  0  0  0  0  0  0  0  0  0  0
   24.0198   -6.3457  -23.0571 C   0  0  0  0  0  0  0  0  0  0  0  0
   23.8693   -7.8044  -23.0133 C   0  0  0  0  0  0  0  0  0  0  0  0
   22.8037   -8.4409  -23.8434 C   0  0  0  0  0  0  0  0  0  0  0  0
   23.5919   -5.5194  -24.0717 C   0  0  0  0  0  0  0  0  0  0  0  0
   23.4662   -2.8508  -24.6312 S   0  0  2  0  0  6  0  0  0  0  0  0
   24.1618   -1.7486  -24.0356 O   0  0  0  0  0  0  0  0  0  0  0  0
   23.9263   -4.2213  -23.7625 N   0  0  0  0  0  4  0  0  0  0  0  0
   21.7607   -2.6769  -24.2621 C   0  0  0  0  0  0  0  0  0  0  0  0
   22.0926   -1.5667  -22.5026 H   0  0  0  0  0  0  0  0  0  0  0  0
   19.7632   -1.5705  -21.8502 H   0  0  0  0  0  0  0  0  0  0  0  0
   18.1162   -2.6265  -23.2475 H   0  0  0  0  0  0  0  0  0  0  0  0
   18.7744   -3.6774  -25.3036 H   0  0  0  0  0  0  0  0  0  0  0  0
   21.1014   -3.7386  -25.9551 H   0  0  0  0  0  0  0  0  0  0  0  0
   24.9736   -3.3867  -22.0717 H   0  0  0  0  0  0  0  0  0  0  0  0
   25.1282   -5.8080  -21.2198 H   0  0  0  0  0  0  0  0  0  0  0  0
   22.8256   -9.5011  -23.7002 H   0  0  0  0  0  0  0  0  0  0  0  0
   22.9741   -8.2170  -24.8757 H   0  0  0  0  0  0  0  0  0  0  0  0
   21.8477   -8.0609  -23.5491 H   0  0  0  0  0  0  0  0  0  0  0  0
   23.0998   -5.8244  -24.9260 H   0  0  0  0  0  0  0  0  0  0  0  0
  3  4  4  0
  4  5  4  0
  5  6  4  0
  6  7  4  0
  8  9  4  0
  9 10  4  0
  1 11  2  0
 10 11  1  0
 11 12  1  0
 10 13  4  0
  2 14  2  0
 14 15  2  0
 14 16  1  0
 13 16  4  0
  8 16  4  0
  7 17  4  0
 14 17  1  6
  3 17  4  0
  3 18  1  0
  4 19  1  0
  5 20  1  0
  6 21  1  0
  7 22  1  0
  8 23  1  0
  9 24  1  0
 12 25  1  0
 12 26  1  0
 12 27  1  0
 13 28  1  0
M  CHG  1  16   1
M  END
