1OQ5_CEL_A_701
     RDKit          3D

 26 28  0  0  0  0  0  0  0  0999 V2000
   15.4045    2.7845   16.4881 S   0  0  2  0  0  0  0  0  0  0  0  0
   15.9935    4.3186   15.8896 C   0  0  0  0  0  0  0  0  0  0  0  0
   17.3545    4.4452   15.6838 C   0  0  0  0  0  0  0  0  0  0  0  0
   17.8422    5.6472   15.2118 C   0  0  0  0  0  0  0  0  0  0  0  0
   16.9888    6.7212   14.9436 C   0  0  0  0  0  0  0  0  0  0  0  0
   15.6329    6.5963   15.1482 C   0  0  0  0  0  0  0  0  0  0  0  0
   15.1429    5.3835   15.6243 C   0  0  0  0  0  0  0  0  0  0  0  0
   17.6104    7.9011   14.4631 N   0  0  0  0  0  0  0  0  0  0  0  0
   17.1534    8.7801   13.5538 C   0  0  0  0  0  0  0  0  0  0  0  0
   15.8796    8.7091   12.8418 C   0  0  0  0  0  0  0  0  0  0  0  0
   15.5460    7.4469   12.3360 C   0  0  0  0  0  0  0  0  0  0  0  0
   14.3849    7.2226   11.6460 C   0  0  0  0  0  0  0  0  0  0  0  0
   13.5226    8.2908   11.4506 C   0  0  0  0  0  0  0  0  0  0  0  0
   12.2607    8.0634   10.7049 C   0  0  0  0  0  0  0  0  0  0  0  0
   13.8634    9.5253   11.9532 C   0  0  0  0  0  0  0  0  0  0  0  0
   15.0392    9.7582   12.6533 C   0  0  0  0  0  0  0  0  0  0  0  0
   18.0819    9.7876   13.3819 C   0  0  0  0  0  0  0  0  0  0  0  0
   19.1279    9.4798   14.2313 C   0  0  0  0  0  0  0  0  0  0  0  0
   20.3717   10.2857   14.3941 C   0  0  2  0  0  0  0  0  0  0  0  0
   20.0158   11.4226   15.1054 F   0  0  0  0  0  0  0  0  0  0  0  0
   20.8344   10.7414   13.1691 F   0  0  0  0  0  0  0  0  0  0  0  0
   21.3367    9.5583   15.0448 F   0  0  0  0  0  0  0  0  0  0  0  0
   18.7917    8.3347   14.8575 N   0  0  0  0  0  0  0  0  0  0  0  0
   16.0907    1.5275   15.5155 N   0  0  0  0  0  0  0  0  0  0  0  0
   13.9009    2.7077   16.3747 O   0  0  0  0  0  0  0  0  0  0  0  0
   15.8657    2.5941   17.8920 O   0  0  0  0  0  0  0  0  0  0  0  0
  1  2  1  0
  2  3  2  0
  3  4  1  0
  4  5  2  0
  5  6  1  0
  2  7  1  0
  6  7  2  0
  5  8  1  0
  8  9  1  0
  9 10  1  0
 10 11  2  0
 11 12  1  0
 12 13  2  0
 13 14  1  0
 13 15  1  0
 10 16  1  0
 15 16  2  0
  9 17  2  0
 17 18  1  0
 18 19  1  0
 19 20  1  1
 19 21  1  0
 19 22  1  0
  8 23  1  0
 18 23  2  0
  1 24  1  6
  1 25  2  0
  1 26  2  0
M  END
$$$$
