1OQ5_CEL_A_701
     RDKit          3D

 26 28  0  0  0  0  0  0  0  0999 V2000
   15.4527    2.9106   16.5105 S   0  0  2  0  0  0  0  0  0  0  0  0
   16.0352    4.4365   15.8855 C   0  0  0  0  0  0  0  0  0  0  0  0
   17.4015    4.5898   15.7428 C   0  0  0  0  0  0  0  0  0  0  0  0
   17.8843    5.7860   15.2513 C   0  0  0  0  0  0  0  0  0  0  0  0
   17.0207    6.8280   14.9017 C   0  0  0  0  0  0  0  0  0  0  0  0
   15.6595    6.6765   15.0434 C   0  0  0  0  0  0  0  0  0  0  0  0
   15.1745    5.4696   15.5392 C   0  0  0  0  0  0  0  0  0  0  0  0
   17.6381    8.0051   14.4092 N   0  0  0  0  0  0  0  0  0  0  0  0
   17.2439    8.8000   13.3986 C   0  0  0  0  0  0  0  0  0  0  0  0
   16.0591    8.6188   12.5633 C   0  0  0  0  0  0  0  0  0  0  0  0
   14.9688    8.0085   13.1950 C   0  0  0  0  0  0  0  0  0  0  0  0
   13.7887    7.7711   12.5427 C   0  0  0  0  0  0  0  0  0  0  0  0
   13.6867    8.1536   11.2137 C   0  0  0  0  0  0  0  0  0  0  0  0
   12.4145    7.9029   10.4935 C   0  0  0  0  0  0  0  0  0  0  0  0
   14.7661    8.7521   10.6060 C   0  0  0  0  0  0  0  0  0  0  0  0
   15.9647    8.9952   11.2626 C   0  0  0  0  0  0  0  0  0  0  0  0
   18.1402    9.8407   13.2565 C   0  0  0  0  0  0  0  0  0  0  0  0
   19.1008    9.6414   14.2302 C   0  0  0  0  0  0  0  0  0  0  0  0
   20.2829   10.5186   14.4670 C   0  0  2  0  0  0  0  0  0  0  0  0
   21.0705   10.4367   13.3277 F   0  0  0  0  0  0  0  0  0  0  0  0
   21.0681   10.0292   15.4996 F   0  0  0  0  0  0  0  0  0  0  0  0
   19.8847   11.8075   14.7200 F   0  0  0  0  0  0  0  0  0  0  0  0
   18.7494    8.5229   14.8949 N   0  0  0  0  0  0  0  0  0  0  0  0
   16.2236    1.6370   15.6269 N   0  0  0  0  0  0  0  0  0  0  0  0
   13.9603    2.7883   16.3179 O   0  0  0  0  0  0  0  0  0  0  0  0
   15.8395    2.7860   17.9439 O   0  0  0  0  0  0  0  0  0  0  0  0
  1  2  1  0
  2  3  2  0
  3  4  1  0
  4  5  2  0
  5  6  1  0
  2  7  1  0
  6  7  2  0
  5  8  1  0
  8  9  1  0
  9 10  1  0
 10 11  2  0
 11 12  1  0
 12 13  2  0
 13 14  1  0
 13 15  1  0
 10 16  1  0
 15 16  2  0
  9 17  2  0
 17 18  1  0
 18 19  1  0
 19 20  1  6
 19 21  1  0
 19 22  1  0
  8 23  1  0
 18 23  2  0
  1 24  1  6
  1 25  2  0
  1 26  2  0
M  END
$$$$
