1OQ5_CEL_A_701
     RDKit          3D

 26 28  0  0  0  0  0  0  0  0999 V2000
   15.1598    2.8714   16.4426 S   0  0  2  0  0  0  0  0  0  0  0  0
   16.0025    4.2814   15.8424 C   0  0  0  0  0  0  0  0  0  0  0  0
   15.2609    5.4287   15.6318 C   0  0  0  0  0  0  0  0  0  0  0  0
   15.9050    6.5541   15.1584 C   0  0  0  0  0  0  0  0  0  0  0  0
   17.2774    6.5470   14.8936 C   0  0  0  0  0  0  0  0  0  0  0  0
   18.0172    5.4047   15.1029 C   0  0  0  0  0  0  0  0  0  0  0  0
   17.3660    4.2709   15.5804 C   0  0  0  0  0  0  0  0  0  0  0  0
   17.8214    7.7638   14.4113 N   0  0  0  0  0  0  0  0  0  0  0  0
   17.3743    8.5459   13.4127 C   0  0  0  0  0  0  0  0  0  0  0  0
   16.1964    8.3052   12.5828 C   0  0  0  0  0  0  0  0  0  0  0  0
   15.5598    9.4545   12.0991 C   0  0  0  0  0  0  0  0  0  0  0  0
   14.4439    9.3906   11.3083 C   0  0  0  0  0  0  0  0  0  0  0  0
   13.9409    8.1393   10.9855 C   0  0  0  0  0  0  0  0  0  0  0  0
   12.7325    8.0539   10.1297 C   0  0  0  0  0  0  0  0  0  0  0  0
   14.5768    7.0188   11.4679 C   0  0  0  0  0  0  0  0  0  0  0  0
   15.7083    7.0778   12.2698 C   0  0  0  0  0  0  0  0  0  0  0  0
   18.2072    9.6388   13.2774 C   0  0  0  0  0  0  0  0  0  0  0  0
   19.1845    9.4850   14.2427 C   0  0  0  0  0  0  0  0  0  0  0  0
   20.3149   10.4272   14.4824 C   0  0  2  0  0  0  0  0  0  0  0  0
   19.7804   11.7067   14.4327 F   0  0  0  0  0  0  0  0  0  0  0  0
   21.2400   10.3687   13.4513 F   0  0  0  0  0  0  0  0  0  0  0  0
   20.9097   10.1697   15.6923 F   0  0  0  0  0  0  0  0  0  0  0  0
   18.9039    8.3402   14.8961 N   0  0  0  0  0  0  0  0  0  0  0  0
   15.7228    1.4917   15.5615 N   0  0  0  0  0  0  0  0  0  0  0  0
   13.6721    3.0031   16.2217 O   0  0  0  0  0  0  0  0  0  0  0  0
   15.4921    2.6749   17.8816 O   0  0  0  0  0  0  0  0  0  0  0  0
  1  2  1  0
  2  3  2  0
  3  4  1  0
  4  5  2  0
  5  6  1  0
  2  7  1  0
  6  7  2  0
  5  8  1  0
  8  9  1  0
  9 10  1  0
 10 11  2  0
 11 12  1  0
 12 13  2  0
 13 14  1  0
 13 15  1  0
 10 16  1  0
 15 16  2  0
  9 17  2  0
 17 18  1  0
 18 19  1  0
 19 20  1  1
 19 21  1  0
 19 22  1  0
  8 23  1  0
 18 23  2  0
  1 24  1  6
  1 25  2  0
  1 26  2  0
M  END
$$$$
