1OQ5_CEL_A_701
     RDKit          3D

 26 28  0  0  0  0  0  0  0  0999 V2000
   15.0263    2.8341   16.7732 S   0  0  2  0  0  0  0  0  0  0  0  0
   15.9655    4.0649   15.9598 C   0  0  0  0  0  0  0  0  0  0  0  0
   15.4130    5.3278   15.8571 C   0  0  0  0  0  0  0  0  0  0  0  0
   16.1362    6.3154   15.2191 C   0  0  0  0  0  0  0  0  0  0  0  0
   17.4013    6.0571   14.6840 C   0  0  0  0  0  0  0  0  0  0  0  0
   17.9527    4.7995   14.7857 C   0  0  0  0  0  0  0  0  0  0  0  0
   17.2220    3.8049   15.4293 C   0  0  0  0  0  0  0  0  0  0  0  0
   18.0427    7.1530   14.0539 N   0  0  0  0  0  0  0  0  0  0  0  0
   18.3899    7.2930   12.7622 C   0  0  0  0  0  0  0  0  0  0  0  0
   18.1758    6.3181   11.6954 C   0  0  0  0  0  0  0  0  0  0  0  0
   16.9586    5.6284   11.7500 C   0  0  0  0  0  0  0  0  0  0  0  0
   16.6144    4.6841   10.8204 C   0  0  0  0  0  0  0  0  0  0  0  0
   17.5117    4.4139    9.7983 C   0  0  0  0  0  0  0  0  0  0  0  0
   17.1529    3.3933    8.7836 C   0  0  0  0  0  0  0  0  0  0  0  0
   18.7038    5.0993    9.7572 C   0  0  0  0  0  0  0  0  0  0  0  0
   19.0577    6.0576   10.6970 C   0  0  0  0  0  0  0  0  0  0  0  0
   18.9940    8.5211   12.5796 C   0  0  0  0  0  0  0  0  0  0  0  0
   18.9982    9.1235   13.8237 C   0  0  0  0  0  0  0  0  0  0  0  0
   19.5526   10.4742   14.1253 C   0  0  2  0  0  0  0  0  0  0  0  0
   19.8021   10.5035   15.4899 F   0  0  0  0  0  0  0  0  0  0  0  0
   18.6080   11.4632   13.8973 F   0  0  0  0  0  0  0  0  0  0  0  0
   20.6911   10.7032   13.3937 F   0  0  0  0  0  0  0  0  0  0  0  0
   18.4137    8.2562   14.6737 N   0  0  0  0  0  0  0  0  0  0  0  0
   15.4832    1.2939   16.1281 N   0  0  0  0  0  0  0  0  0  0  0  0
   13.5508    3.0358   16.5250 O   0  0  0  0  0  0  0  0  0  0  0  0
   15.3517    2.8473   18.2270 O   0  0  0  0  0  0  0  0  0  0  0  0
  1  2  1  0
  2  3  2  0
  3  4  1  0
  4  5  2  0
  5  6  1  0
  2  7  1  0
  6  7  2  0
  5  8  1  0
  8  9  1  0
  9 10  1  0
 10 11  2  0
 11 12  1  0
 12 13  2  0
 13 14  1  0
 13 15  1  0
 10 16  1  0
 15 16  2  0
  9 17  2  0
 17 18  1  0
 18 19  1  0
 19 20  1  1
 19 21  1  0
 19 22  1  0
  8 23  1  0
 18 23  2  0
  1 24  1  6
  1 25  2  0
  1 26  2  0
M  END
$$$$
