7QF4_RBF_AAA_201
     RDKit          3D

 27 29  0  0  0  0  0  0  0  0999 V2000
   -1.8125   -6.3832  -12.7694 N   0  0  0  0  0  0  0  0  0  0  0  0
   -2.1250   -6.9243  -13.9537 C   0  0  0  0  0  0  0  0  0  0  0  0
   -3.1401   -7.6748  -14.0827 O   0  0  0  0  0  0  0  0  0  0  0  0
   -1.4062   -6.7222  -15.0786 N   0  0  0  0  0  0  0  0  0  0  0  0
   -0.2982   -5.9403  -15.0755 C   0  0  0  0  0  0  0  0  0  0  0  0
    0.3859   -5.7410  -16.1201 O   0  0  0  0  0  0  0  0  0  0  0  0
    0.0480   -5.3717  -13.8771 C   0  0  0  0  0  0  0  0  0  0  0  0
    1.1342   -4.5959  -13.8397 N   0  0  0  0  0  0  0  0  0  0  0  0
    1.4643   -4.0434  -12.6579 C   0  0  0  0  0  0  0  0  0  0  0  0
    2.6010   -3.2410  -12.6396 C   0  0  0  0  0  0  0  0  0  0  0  0
    3.0124   -2.6379  -11.4674 C   0  0  0  0  0  0  0  0  0  0  0  0
    4.2197   -1.7702  -11.3907 C   0  0  0  0  0  0  0  0  0  0  0  0
    2.2791   -2.8437  -10.3168 C   0  0  0  0  0  0  0  0  0  0  0  0
    2.7069   -2.2040   -9.0503 C   0  0  0  0  0  0  0  0  0  0  0  0
    1.1511   -3.6470  -10.3614 C   0  0  0  0  0  0  0  0  0  0  0  0
    0.7236   -4.2527  -11.5026 C   0  0  0  0  0  0  0  0  0  0  0  0
   -0.3783   -5.0210  -11.4731 N   0  0  0  0  0  0  0  0  0  0  0  0
   -0.7243   -5.5887  -12.6681 C   0  0  0  0  0  0  0  0  0  0  0  0
   -1.1706   -5.2547  -10.3219 C   0  0  0  0  0  0  0  0  0  0  0  0
   -2.3584   -4.2967  -10.1814 C   0  0  2  0  0  0  0  0  0  0  0  0
   -2.0602   -2.9927  -10.4650 O   0  0  0  0  0  0  0  0  0  0  0  0
   -2.8863   -4.4925   -8.7746 C   0  0  2  0  0  0  0  0  0  0  0  0
   -1.8531   -4.4163   -7.8481 O   0  0  0  0  0  0  0  0  0  0  0  0
   -3.6969   -5.7444   -8.6402 C   0  0  2  0  0  0  0  0  0  0  0  0
   -4.5669   -5.9150   -9.7111 O   0  0  0  0  0  0  0  0  0  0  0  0
   -4.5370   -5.6697   -7.3974 C   0  0  0  0  0  0  0  0  0  0  0  0
   -5.3208   -6.8087   -7.3179 O   0  0  0  0  0  0  0  0  0  0  0  0
  1  2  1  0
  2  3  2  0
  2  4  1  0
  4  5  1  0
  5  6  2  0
  5  7  1  0
  7  8  2  0
  8  9  1  0
  9 10  1  0
 10 11  2  0
 11 12  1  0
 11 13  1  0
 13 14  1  0
 13 15  2  0
  9 16  2  0
 15 16  1  0
 16 17  1  0
  1 18  2  0
  7 18  1  0
 17 18  1  0
 17 19  1  0
 19 20  1  0
 20 21  1  1
 20 22  1  0
 22 23  1  1
 22 24  1  0
 24 25  1  6
 24 26  1  0
 26 27  1  0
M  END
$$$$
