7MOI_HPS_A_501
     RDKit          3D

 11 11  0  0  0  0  0  0  0  0999 V2000
   23.8999   31.1994   -4.6144 C   0  0  0  0  0  0  0  0  0  0  0  0
   23.9268   31.4675   -3.2523 C   0  0  0  0  0  0  0  0  0  0  0  0
   23.7613   30.3993   -2.3951 C   0  0  0  0  0  0  0  0  0  0  0  0
   23.5737   29.0973   -2.8701 C   0  0  0  0  0  0  0  0  0  0  0  0
   23.5490   28.8451   -4.2224 C   0  0  0  0  0  0  0  0  0  0  0  0
   23.7146   29.9145   -5.0680 C   0  0  0  0  0  0  0  0  0  0  0  0
   23.3694   27.5928   -4.7658 O   0  0  0  0  0  0  0  0  0  0  0  0
   23.2446   26.2449   -3.7189 P   0  0  1  0  0  0  0  0  0  0  0  0
   21.8577   26.4099   -2.7584 O   0  0  0  0  0  0  0  0  0  0  0  0
   23.1220   24.8102   -4.6057 O   0  0  0  0  0  0  0  0  0  0  0  0
   24.4649   26.1798   -2.8284 O   0  0  0  0  0  0  0  0  0  0  0  0
  1  2  2  0
  2  3  1  0
  3  4  2  0
  4  5  1  0
  1  6  1  0
  5  6  2  0
  5  7  1  0
  7  8  1  0
  8  9  1  1
  8 10  1  0
  8 11  2  0
M  END
$$$$
