7LJN_GTP_A_501
     RDKit          3D

 48 50  0  0  0  0  0  0  0  0999 V2000
  -15.1287   27.6798  -25.6950 P   0  0  2  0  0  5  0  0  0  0  0  0
  -14.6643   28.4540  -26.9076 O   0  0  0  0  0  0  0  0  0  0  0  0
  -16.7921   27.9303  -25.4964 O   0  0  0  0  0  0  0  0  0  0  0  0
  -14.3015   28.2529  -24.3336 O   0  0  0  0  0  0  0  0  0  0  0  0
  -14.7776   26.0316  -25.9367 O   0  0  0  0  0  0  0  0  0  0  0  0
  -16.1678   25.1372  -25.5310 P   0  0  1  0  0  5  0  0  0  0  0  0
  -17.1521   26.0858  -24.8829 O   0  0  0  0  0  0  0  0  0  0  0  0
  -16.8778   24.4849  -26.9256 O   0  0  0  0  0  0  0  0  0  0  0  0
  -15.7324   23.9021  -24.4398 O   0  0  0  0  0  0  0  0  0  0  0  0
  -15.5015   22.4610  -25.3236 P   0  0  1  0  0  5  0  0  0  0  0  0
  -15.6905   22.7423  -26.7973 O   0  0  0  0  0  0  0  0  0  0  0  0
  -13.9495   21.8255  -25.0816 O   0  0  0  0  0  0  0  0  0  0  0  0
  -16.6541   21.2924  -24.8552 O   0  0  0  0  0  0  0  0  0  0  0  0
  -17.1651   21.6429  -23.5904 C   0  0  2  0  0  0  0  0  0  0  0  0
  -18.5906   22.1844  -23.7539 C   0  0  1  0  0  0  0  0  0  0  0  0
  -18.5322   23.5163  -24.2280 O   0  0  0  0  0  0  0  0  0  0  0  0
  -19.4069   21.3311  -24.7331 C   0  0  1  0  0  0  0  0  0  0  0  0
  -20.7445   21.2562  -24.3081 O   0  0  0  0  0  0  0  0  0  0  0  0
  -19.2927   22.1235  -26.0104 C   0  0  1  0  0  0  0  0  0  0  0  0
  -20.3904   21.9536  -26.8774 O   0  0  0  0  0  0  0  0  0  0  0  0
  -19.1281   23.5549  -25.5074 C   0  0  2  0  0  0  0  0  0  0  0  0
  -18.2986   24.3328  -26.4288 N   0  0  0  0  0  0  0  0  0  0  0  0
  -17.3860   23.8768  -27.3270 C   0  0  0  0  0  0  0  0  0  0  0  0
  -16.8613   24.8597  -28.1103 N   0  0  0  0  0  0  0  0  0  0  0  0
  -17.4988   25.9604  -27.6690 C   0  0  0  0  0  0  0  0  0  0  0  0
  -17.3999   27.2723  -28.1082 C   0  0  0  0  0  0  0  0  0  0  0  0
  -16.6090   27.5917  -29.0353 O   0  0  0  0  0  0  0  0  0  0  0  0
  -18.1914   28.2117  -27.5052 N   0  0  0  0  0  0  0  0  0  0  0  0
  -19.0642   27.8654  -26.4988 C   0  0  0  0  0  0  0  0  0  0  0  0
  -19.8848   28.8605  -25.8876 N   0  0  0  0  0  0  0  0  0  0  0  0
  -19.1527   26.5660  -26.0782 N   0  0  0  0  0  0  0  0  0  0  0  0
  -18.3587   25.6462  -26.6760 C   0  0  0  0  0  0  0  0  0  0  0  0
  -16.8917   28.2393  -24.5609 H   0  0  0  0  0  0  0  0  0  0  0  0
  -14.9875   28.2937  -23.6203 H   0  0  0  0  0  0  0  0  0  0  0  0
  -16.9810   23.5183  -26.7352 H   0  0  0  0  0  0  0  0  0  0  0  0
  -13.4869   22.4869  -24.5094 H   0  0  0  0  0  0  0  0  0  0  0  0
  -16.5383   22.4442  -23.1378 H   0  0  0  0  0  0  0  0  0  0  0  0
  -17.1964   20.7624  -22.9079 H   0  0  0  0  0  0  0  0  0  0  0  0
  -19.0755   22.1835  -22.7524 H   0  0  0  0  0  0  0  0  0  0  0  0
  -18.9918   20.3048  -24.8741 H   0  0  0  0  0  0  0  0  0  0  0  0
  -20.7397   20.7599  -23.4479 H   0  0  0  0  0  0  0  0  0  0  0  0
  -18.3687   21.8042  -26.5436 H   0  0  0  0  0  0  0  0  0  0  0  0
  -21.2249   21.9596  -26.3407 H   0  0  0  0  0  0  0  0  0  0  0  0
  -20.1185   24.0514  -25.4010 H   0  0  0  0  0  0  0  0  0  0  0  0
  -17.1096   22.8355  -27.4240 H   0  0  0  0  0  0  0  0  0  0  0  0
  -18.1340   29.2069  -27.8192 H   0  0  0  0  0  0  0  0  0  0  0  0
  -19.7565   29.8714  -26.1146 H   0  0  0  0  0  0  0  0  0  0  0  0
  -20.6250   28.5855  -25.2044 H   0  0  0  0  0  0  0  0  0  0  0  0
  1  2  2  0
  1  3  1  1
  1  4  1  0
  1  5  1  0
  6  5  1  6
  6  7  2  0
  6  8  1  0
  6  9  1  0
 10  9  1  1
 10 11  2  0
 10 12  1  0
 10 13  1  0
 13 14  1  0
 15 14  1  0
 15 16  1  0
 15 17  1  0
 17 18  1  0
 17 19  1  0
 19 20  1  0
 16 21  1  0
 19 21  1  0
 21 22  1  0
 22 23  1  0
 23 24  2  0
 24 25  1  0
 25 26  1  0
 26 27  2  0
 26 28  1  0
 28 29  1  0
 29 30  1  0
 29 31  2  0
 22 32  1  0
 25 32  2  0
 31 32  1  0
  3 33  1  0
  4 34  1  0
  8 35  1  0
 12 36  1  0
 14 37  1  1
 14 38  1  0
 15 39  1  1
 17 40  1  6
 18 41  1  0
 19 42  1  6
 20 43  1  0
 21 44  1  1
 23 45  1  0
 28 46  1  0
 30 47  1  0
 30 48  1  0
M  END
