7NPL_UKZ_A_401
     RDKit          3D

 27 29  0  0  0  0  0  0  0  0999 V2000
  -18.7780    4.1210    3.8390 C   0  0  0  0  0  0  0  0  0  0  0  0
  -18.8300    3.9070    5.2210 C   0  0  0  0  0  0  0  0  0  0  0  0
  -19.6970   -0.1420   10.6870 C   0  0  0  0  0  0  0  0  0  0  0  0
  -19.6560   -1.9160   12.3620 C   0  0  0  0  0  0  0  0  0  0  0  0
  -20.0880    0.7990   11.6760 C   0  0  0  0  0  0  0  0  0  0  0  0
  -20.3260    2.2670   11.3490 C   0  0  0  0  0  0  0  0  0  0  0  0
  -14.4420   -0.3980    9.8680 C   0  0  0  0  0  0  0  0  0  0  0  0
  -15.5230    0.5210    9.3110 C   0  0  0  0  0  0  0  0  0  0  0  0
  -16.9130   -0.1300    9.4170 C   0  0  0  0  0  0  0  0  0  0  0  0
  -18.0290    0.8410    9.0270 C   0  0  1  0  0  0  0  0  0  0  0  0
  -17.9110    1.2250    7.5950 N   0  0  0  0  0  0  0  0  0  0  0  0
  -18.1970    2.4720    7.1990 C   0  0  0  0  0  0  0  0  0  0  0  0
  -18.5370    3.3470    7.9990 O   0  0  0  0  0  0  0  0  0  0  0  0
  -18.1110    2.8140    5.7560 C   0  0  0  0  0  0  0  0  0  0  0  0
  -17.3320    1.9890    4.9280 C   0  0  0  0  0  0  0  0  0  0  0  0
  -17.3210    2.2050    3.5440 C   0  0  0  0  0  0  0  0  0  0  0  0
  -18.0160    3.3000    3.0110 C   0  0  0  0  0  0  0  0  0  0  0  0
  -19.4740    5.3050    3.5330 N   0  0  0  0  0  0  0  0  0  0  0  0
  -20.0170    5.8520    4.6130 C   0  0  0  0  0  0  0  0  0  0  0  0
  -20.6760    6.8900    4.6330 O   0  0  0  0  0  0  0  0  0  0  0  0
  -19.6340    5.0230    5.8190 C   0  0  0  0  0  0  0  0  0  0  0  0
  -19.4510    0.2900    9.2290 C   0  0  1  0  0  0  0  0  0  0  0  0
  -19.6540   -0.8160    8.3420 O   0  0  0  0  0  0  0  0  0  0  0  0
  -19.4730   -1.4840   11.0430 C   0  0  0  0  0  0  0  0  0  0  0  0
  -20.0560   -0.9950   13.3220 C   0  0  0  0  0  0  0  0  0  0  0  0
  -20.1890    0.3500   12.9940 C   0  0  0  0  0  0  0  0  0  0  0  0
  -20.6740    1.4900   14.2120 Cl  0  0  0  0  0  0  0  0  0  0  0  0
  1  2  2  0
  3  5  2  0
  5  6  1  0
  7  8  1  0
  8  9  1  0
 10  9  1  6
 10 11  1  0
 11 12  1  0
 12 13  2  0
  2 14  1  0
 12 14  1  0
 14 15  2  0
 15 16  1  0
 16 17  2  0
  1 17  1  0
  1 18  1  0
 18 19  1  0
 19 20  2  0
 19 21  1  0
  2 21  1  0
 10 22  1  0
  3 22  1  0
 22 23  1  6
  3 24  1  0
  4 24  2  0
  4 25  1  0
  5 26  1  0
 25 26  2  0
 26 27  1  0
M  END
$$$$
