1OF6_DTY_A_1370
     RDKit          3D

 24 24  0  0  0  0  0  0  0  0999 V2000
   40.3891   -7.6648   48.5874 N   0  0  0  0  0  0  0  0  0  0  0  0
   40.0911   -6.2398   48.7289 C   0  0  2  0  0  0  0  0  0  0  0  0
   41.3428   -5.4296   48.9757 C   0  0  0  0  0  0  0  0  0  0  0  0
   41.4103   -4.4914   49.8212 O   0  0  0  0  0  0  0  0  0  0  0  0
   39.1254   -6.0812   49.9039 C   0  0  0  0  0  0  0  0  0  0  0  0
   39.7677   -5.8842   51.2638 C   0  0  0  0  0  0  0  0  0  0  0  0
   39.8293   -6.9327   52.1299 C   0  0  0  0  0  0  0  0  0  0  0  0
   40.2609   -4.6426   51.6479 C   0  0  0  0  0  0  0  0  0  0  0  0
   40.3908   -6.7411   53.3622 C   0  0  0  0  0  0  0  0  0  0  0  0
   40.8662   -4.4483   52.8747 C   0  0  0  0  0  0  0  0  0  0  0  0
   40.9339   -5.5396   53.7329 C   0  0  0  0  0  0  0  0  0  0  0  0
   41.4246   -5.4328   54.9029 O   0  0  0  0  0  0  0  0  0  0  0  0
   42.3152   -5.7738   48.3077 O   0  0  0  0  0  0  0  0  0  0  0  0
   41.0334   -7.8019   47.8086 H   0  0  0  0  0  0  0  0  0  0  0  0
   39.5255   -8.1769   48.4082 H   0  0  0  0  0  0  0  0  0  0  0  0
   39.6560   -5.8763   47.8216 H   0  0  0  0  0  0  0  0  0  0  0  0
   38.5193   -6.9614   49.9517 H   0  0  0  0  0  0  0  0  0  0  0  0
   38.5752   -5.1841   49.7094 H   0  0  0  0  0  0  0  0  0  0  0  0
   39.4583   -7.8573   51.8611 H   0  0  0  0  0  0  0  0  0  0  0  0
   40.1725   -3.8446   50.9993 H   0  0  0  0  0  0  0  0  0  0  0  0
   40.4058   -7.5254   54.0328 H   0  0  0  0  0  0  0  0  0  0  0  0
   41.2525   -3.5297   53.1429 H   0  0  0  0  0  0  0  0  0  0  0  0
   41.4610   -6.1810   55.4660 H   0  0  0  0  0  0  0  0  0  0  0  0
   42.2350   -6.4729   47.6885 H   0  0  0  0  0  0  0  0  0  0  0  0
  2  1  1  0
  2  3  1  0
  3  4  2  0
  2  5  1  0
  5  6  1  0
  6  7  2  0
  6  8  1  0
  7  9  1  0
  8 10  2  0
  9 11  2  0
 10 11  1  0
 11 12  1  0
  3 13  1  0
  1 14  1  0
  1 15  1  0
  2 16  1  6
  5 17  1  0
  5 18  1  0
  7 19  1  0
  8 20  1  0
  9 21  1  0
 10 22  1  0
 12 23  1  0
 13 24  1  0
M  END
