7VWF_K55_A_502
     RDKit          3D

 33 34  0  0  0  0  0  0  0  0999 V2000
   18.4870   -3.1010   34.1700 O   0  0  0  0  0  0  0  0  0  0  0  0
   20.5300   -2.3450   34.4870 O   0  0  0  0  0  0  0  0  0  0  0  0
   19.2900   -2.2630   34.6250 C   0  0  0  0  0  0  0  0  0  0  0  0
   18.7170   -1.0410   35.3560 C   0  0  1  0  0  0  0  0  0  0  0  0
   19.6090   -0.6160   36.5330 C   0  0  0  0  0  0  0  0  0  0  0  0
   19.7000   -1.6680   37.6240 C   0  0  0  0  0  0  0  0  0  0  0  0
   18.5210    0.0860   34.3360 C   0  0  0  0  0  0  0  0  0  0  0  0
   17.8470    1.3290   34.8640 C   0  0  0  0  0  0  0  0  0  0  0  0
   16.5050    1.3210   35.2450 C   0  0  0  0  0  0  0  0  0  0  0  0
   15.8600    2.4670   35.7070 C   0  0  0  0  0  0  0  0  0  0  0  0
   16.5970    3.6530   35.7740 C   0  0  0  0  0  0  0  0  0  0  0  0
   17.9240    3.6840   35.3840 C   0  0  0  0  0  0  0  0  0  0  0  0
   18.5340    2.5290   34.9340 C   0  0  0  0  0  0  0  0  0  0  0  0
   15.9180    4.7570   36.2090 O   0  0  0  0  0  0  0  0  0  0  0  0
   16.5500    6.0340   36.0530 C   0  0  0  0  0  0  0  0  0  0  0  0
   15.5090    7.1020   36.2560 C   0  0  0  0  0  0  0  0  0  0  0  0
   14.4840    7.2050   35.1540 C   0  0  0  0  0  0  0  0  0  0  0  0
   15.0470    7.6910   33.8370 C   0  0  0  0  0  0  0  0  0  0  0  0
   14.4120    2.4420   36.1200 C   0  0  0  0  0  0  0  0  0  0  0  0
   14.1980    2.8140   37.5170 N   0  0  0  0  0  0  0  0  0  0  0  0
   13.0850    2.4680   38.1680 C   0  0  0  0  0  0  0  0  0  0  0  0
   12.1780    1.8340   37.6350 O   0  0  0  0  0  0  0  0  0  0  0  0
   12.9670    2.8850   39.6020 C   0  0  0  0  0  0  0  0  0  0  0  0
   13.7150    3.8770   40.2030 C   0  0  0  0  0  0  0  0  0  0  0  0
   13.5690    4.2310   41.5240 C   0  0  0  0  0  0  0  0  0  0  0  0
   12.6270    3.5760   42.3000 C   0  0  0  0  0  0  0  0  0  0  0  0
   11.8490    2.5860   41.7280 C   0  0  0  0  0  0  0  0  0  0  0  0
   12.0170    2.2480   40.3960 C   0  0  0  0  0  0  0  0  0  0  0  0
   12.4430    3.9540   43.7320 C   0  0  0  0  0  0  0  0  0  0  0  0
   14.6440    4.5390   39.4780 F   0  0  0  0  0  0  0  0  0  0  0  0
   11.1840    4.2480   44.0190 F   0  0  0  0  0  0  0  0  0  0  0  0
   13.1570    5.0190   44.0870 F   0  0  0  0  0  0  0  0  0  0  0  0
   12.7950    2.9820   44.5650 F   0  0  0  0  0  0  0  0  0  0  0  0
  1  3  1  0
  2  3  2  0
  3  4  1  0
  4  5  1  1
  5  6  1  0
  4  7  1  0
  7  8  1  0
  8  9  2  0
  9 10  1  0
 10 11  2  0
 11 12  1  0
  8 13  1  0
 12 13  2  0
 11 14  1  0
 14 15  1  0
 15 16  1  0
 16 17  1  0
 17 18  1  0
 10 19  1  0
 19 20  1  0
 20 21  1  0
 21 22  2  0
 21 23  1  0
 23 24  2  0
 24 25  1  0
 25 26  2  0
 26 27  1  0
 23 28  1  0
 27 28  2  0
 26 29  1  0
 24 30  1  0
 29 31  1  0
 29 32  1  0
 29 33  1  0
M  END
$$$$
