7NXO_UU8_B_401
     RDKit          3D

 34 37  0  0  0  0  0  0  0  0999 V2000
   21.9042  -15.8484   -0.6440 N   0  0  0  0  0  0  0  0  0  0  0  0
   21.1095  -16.5617    0.1796 C   0  0  0  0  0  0  0  0  0  0  0  0
   19.7383  -16.6006   -0.0440 C   0  0  0  0  0  0  0  0  0  0  0  0
   19.2217  -15.8951   -1.1219 C   0  0  0  0  0  0  0  0  0  0  0  0
   20.0687  -15.2028   -1.9056 N   0  0  0  0  0  0  0  0  0  0  0  0
   21.3941  -15.1595   -1.6975 C   0  0  0  0  0  0  0  0  0  0  0  0
   24.1051  -16.6626   -1.1322 C   0  0  0  0  0  0  0  0  0  0  0  0
   25.4604  -16.6742   -0.9725 C   0  0  0  0  0  0  0  0  0  0  0  0
   25.2996  -14.8968    0.6800 C   0  0  0  0  0  0  0  0  0  0  0  0
   26.6253  -13.7147    3.6226 C   0  0  0  0  0  0  0  0  0  0  0  0
   27.0628  -11.5863    4.5004 C   0  0  0  0  0  0  0  0  0  0  0  0
   26.1151  -11.8005    2.3625 C   0  0  0  0  0  0  0  0  0  0  0  0
   25.5942  -11.1198    1.1546 C   0  0  0  0  0  0  0  0  0  0  0  0
   26.5794  -10.9926    3.3718 C   0  0  0  0  0  0  0  0  0  0  0  0
   27.0903  -12.9440    4.6359 C   0  0  0  0  0  0  0  0  0  0  0  0
   26.0999  -13.1748    2.4019 C   0  0  0  0  0  0  0  0  0  0  0  0
   25.6990  -14.0375    1.5393 O   0  0  0  0  0  0  0  0  0  0  0  0
   23.8846  -14.9510    0.4510 C   0  0  0  0  0  0  0  0  0  0  0  0
   26.0376  -15.7868   -0.0647 C   0  0  0  0  0  0  0  0  0  0  0  0
   27.4635  -15.8720    0.0386 C   0  0  0  0  0  0  0  0  0  0  0  0
   28.6085  -15.9233    0.1325 N   0  0  0  0  0  0  0  0  0  0  0  0
   23.5356  -17.5115   -2.0030 F   0  0  0  0  0  0  0  0  0  0  0  0
   23.3092  -15.8051   -0.4253 C   0  0  0  0  0  0  0  0  0  0  0  0
   21.5828  -17.1905    1.1429 O   0  0  0  0  0  0  0  0  0  0  0  0
   22.1889  -14.5140   -2.4274 O   0  0  0  0  0  0  0  0  0  0  0  0
   17.5133  -15.9472   -1.3991 S   0  0  2  0  0  6  0  0  0  0  0  0
   17.0711  -14.8328   -2.3272 O   0  0  0  0  0  0  0  0  0  0  0  0
   16.8023  -15.6725   -0.0808 O   0  0  0  0  0  0  0  0  0  0  0  0
   16.9440  -17.4470   -2.0419 C   0  0  0  0  0  0  0  0  0  0  0  0
   17.2789  -17.7674   -3.3445 C   0  0  0  0  0  0  0  0  0  0  0  0
   16.8792  -18.9334   -3.9536 C   0  0  0  0  0  0  0  0  0  0  0  0
   16.1144  -19.8054   -3.2197 C   0  0  0  0  0  0  0  0  0  0  0  0
   15.7550  -19.5177   -1.9004 C   0  0  0  0  0  0  0  0  0  0  0  0
   16.1648  -18.3364   -1.2959 C   0  0  0  0  0  0  0  0  0  0  0  0
  1  2  1  0
  2  3  1  0
  3  4  2  0
  4  5  1  0
  1  6  1  0
  5  6  1  0
  7  8  2  0
 13 12  1  1
 12 14  1  0
 11 14  2  0
 11 15  1  0
 10 15  2  0
 12 16  2  0
 10 16  1  0
 16 17  1  0
  9 17  1  0
  9 18  1  0
  9 19  2  0
  8 19  1  0
 19 20  1  0
 20 21  3  0
  7 22  1  0
 18 23  2  0
  7 23  1  0
  1 23  1  0
  2 24  2  0
  6 25  2  0
 26  4  1  1
 26 27  2  0
 26 28  2  0
 26 29  1  0
 29 30  2  0
 30 31  1  0
 31 32  2  0
 32 33  1  0
 29 34  1  0
 33 34  2  0
M  END
$$$$
