
     RDKit          3D

  9  8  0  0  0  0  0  0  0  0999 V2000
  -19.3174   18.1115   27.0241 C   0  0  0  0  0  0  0  0  0  0  0  0
  -20.4169   17.1719   26.5735 C   0  0  0  0  0  0  0  0  0  0  0  0
  -20.9597   16.3011   27.6745 C   0  0  0  0  0  0  0  0  0  0  0  0
  -21.0369   16.9456   29.0059 C   0  0  0  0  0  0  0  0  0  0  0  0
  -19.8693   17.4531   29.4318 O   0  0  0  0  0  0  0  0  0  0  0  0
  -22.0437   17.0229   29.6876 O   0  0  0  0  0  0  0  0  0  0  0  0
  -21.3595   15.0326   27.4751 C   0  0  0  0  0  0  0  0  0  0  0  0
  -19.4863   19.1326   27.6738 O   0  0  0  0  0  0  0  0  0  0  0  0
  -18.0865   17.7988   26.5752 O   0  0  0  0  0  0  0  0  0  0  0  0
  1  2  1  0
  2  3  1  0
  3  4  1  0
  4  5  1  0
  4  6  2  0
  3  7  2  0
  1  8  2  0
  1  9  1  0
M  END
