8EAD_UY0_A_202
     RDKit          3D

 73 76  0  0  0  0  0  0  0  0999 V2000
    9.9102  -10.3775   -3.6360 C   0  0  0  0  0  0  0  0  0  0  0  0
    8.8590  -11.1338   -6.5435 C   0  0  1  0  0  0  0  0  0  0  0  0
    9.4445  -13.1057   -5.2549 C   0  0  2  0  0  0  0  0  0  0  0  0
   11.4203  -13.7931   -6.4551 C   0  0  2  0  0  0  0  0  0  0  0  0
   11.3077  -10.1529   -1.6597 C   0  0  0  0  0  0  0  0  0  0  0  0
   13.2832   -6.1369   -0.3968 C   0  0  0  0  0  0  0  0  0  0  0  0
   10.8448   -5.8063    0.0194 C   0  0  0  0  0  0  0  0  0  0  0  0
    8.9915   -7.0922    0.9151 C   0  0  0  0  0  0  0  0  0  0  0  0
   14.9387   -4.2368   -0.0506 C   0  0  1  0  0  0  0  0  0  0  0  0
   14.5946   -5.6310   -0.4934 C   0  0  0  0  0  0  0  0  0  0  0  0
   15.5870   -6.4759   -1.0149 C   0  0  0  0  0  0  0  0  0  0  0  0
   13.9946   -8.1874   -1.3628 C   0  0  0  0  0  0  0  0  0  0  0  0
   12.4066   -9.8062   -2.4582 C   0  0  0  0  0  0  0  0  0  0  0  0
   12.2589   -9.7921   -3.8563 C   0  0  0  0  0  0  0  0  0  0  0  0
   11.0218  -10.0676   -4.4406 C   0  0  0  0  0  0  0  0  0  0  0  0
    8.2286  -10.2329   -5.4795 C   0  0  2  0  0  0  0  0  0  0  0  0
   10.5578  -14.1375   -5.2512 C   0  0  1  0  0  0  0  0  0  0  0  0
   10.8559  -12.4876   -7.0029 C   0  0  2  0  0  0  0  0  0  0  0  0
   10.0667  -10.4272   -2.2457 C   0  0  0  0  0  0  0  0  0  0  0  0
   10.2955   -6.6074    1.0317 C   0  0  0  0  0  0  0  0  0  0  0  0
    8.2262   -6.7942   -0.2170 C   0  0  0  0  0  0  0  0  0  0  0  0
    8.7705   -5.9991   -1.2430 C   0  0  0  0  0  0  0  0  0  0  0  0
    8.1062   -4.8069   -5.1783 C   0  0  2  0  0  0  0  0  0  0  0  0
    8.2701   -3.4213   -4.5318 C   0  0  1  0  0  0  0  0  0  0  0  0
    8.9744   -4.8900   -6.4457 C   0  0  2  0  0  0  0  0  0  0  0  0
    6.6307   -5.0342   -5.5484 C   0  0  1  0  0  0  0  0  0  0  0  0
   10.0756   -5.4944   -1.1076 C   0  0  0  0  0  0  0  0  0  0  0  0
   15.2706   -7.7290   -1.4354 N   0  0  0  0  0  0  0  0  0  0  0  0
   13.6701   -9.4984   -1.8436 N   0  0  0  0  0  0  0  0  0  0  0  0
    9.9594  -11.9403   -5.9775 N   0  0  0  0  0  0  0  0  0  0  0  0
   13.0280   -7.3975   -0.8320 N   0  0  0  0  0  0  0  0  0  0  0  0
   12.1994   -5.3469    0.1172 N   0  0  0  0  0  0  0  0  0  0  0  0
    8.0121   -5.7243   -2.4286 N   0  0  0  0  0  0  0  0  0  0  0  0
    8.6441  -10.6417   -4.1786 O   0  0  0  0  0  0  0  0  0  0  0  0
    8.1168   -7.4142   -4.4458 O   0  0  0  0  0  0  0  0  0  0  0  0
   10.1350   -6.1274   -3.9719 O   0  0  0  0  0  0  0  0  0  0  0  0
    8.6333   -6.0717   -4.0111 S   0  0  1  0  0  6  0  0  0  0  0  0
    6.6136   -7.4833   -0.3529 Cl  0  0  0  0  0  0  0  0  0  0  0  0
    8.0607  -11.8177   -6.9110 H   0  0  0  0  0  0  0  0  0  0  0  0
    9.2006  -10.5243   -7.4112 H   0  0  0  0  0  0  0  0  0  0  0  0
    9.1658  -12.8223   -4.2164 H   0  0  0  0  0  0  0  0  0  0  0  0
    8.5534  -13.5390   -5.7686 H   0  0  0  0  0  0  0  0  0  0  0  0
   11.3646  -14.5956   -7.2236 H   0  0  0  0  0  0  0  0  0  0  0  0
   12.4799  -13.6598   -6.1428 H   0  0  0  0  0  0  0  0  0  0  0  0
   11.4069  -10.1875   -0.5823 H   0  0  0  0  0  0  0  0  0  0  0  0
    8.5838   -7.7183    1.6972 H   0  0  0  0  0  0  0  0  0  0  0  0
   14.1464   -3.8482    0.6236 H   0  0  0  0  0  0  0  0  0  0  0  0
   15.9081   -4.2120    0.4863 H   0  0  0  0  0  0  0  0  0  0  0  0
   15.0277   -3.5748   -0.9384 H   0  0  0  0  0  0  0  0  0  0  0  0
   16.6120   -6.1379   -1.0960 H   0  0  0  0  0  0  0  0  0  0  0  0
   13.1032   -9.5814   -4.4993 H   0  0  0  0  0  0  0  0  0  0  0  0
   10.9428  -10.0436   -5.5178 H   0  0  0  0  0  0  0  0  0  0  0  0
    7.1212  -10.2822   -5.5582 H   0  0  0  0  0  0  0  0  0  0  0  0
    8.5567   -9.1855   -5.6525 H   0  0  0  0  0  0  0  0  0  0  0  0
   11.1538  -14.0444   -4.3163 H   0  0  0  0  0  0  0  0  0  0  0  0
   10.1488  -15.1688   -5.3252 H   0  0  0  0  0  0  0  0  0  0  0  0
   10.3135  -12.6971   -7.9534 H   0  0  0  0  0  0  0  0  0  0  0  0
   11.6766  -11.7668   -7.2077 H   0  0  0  0  0  0  0  0  0  0  0  0
    9.2204  -10.6729   -1.6161 H   0  0  0  0  0  0  0  0  0  0  0  0
   10.8807   -6.8559    1.9086 H   0  0  0  0  0  0  0  0  0  0  0  0
    8.8847   -3.4896   -3.6116 H   0  0  0  0  0  0  0  0  0  0  0  0
    8.7656   -2.7171   -5.2344 H   0  0  0  0  0  0  0  0  0  0  0  0
    7.2800   -3.0014   -4.2587 H   0  0  0  0  0  0  0  0  0  0  0  0
    9.3929   -3.8927   -6.6999 H   0  0  0  0  0  0  0  0  0  0  0  0
    8.3738   -5.2486   -7.3102 H   0  0  0  0  0  0  0  0  0  0  0  0
    9.8236   -5.5922   -6.2948 H   0  0  0  0  0  0  0  0  0  0  0  0
    6.3959   -4.5637   -6.5270 H   0  0  0  0  0  0  0  0  0  0  0  0
    6.4101   -6.1192   -5.6231 H   0  0  0  0  0  0  0  0  0  0  0  0
    5.9601   -4.5899   -4.7825 H   0  0  0  0  0  0  0  0  0  0  0  0
   10.5082   -4.8876   -1.8942 H   0  0  0  0  0  0  0  0  0  0  0  0
   14.3606  -10.2681   -1.6927 H   0  0  0  0  0  0  0  0  0  0  0  0
   12.3675   -4.3546    0.3972 H   0  0  0  0  0  0  0  0  0  0  0  0
    6.9842   -5.5684   -2.3486 H   0  0  0  0  0  0  0  0  0  0  0  0
  6 10  2  0
  9 10  1  0
 10 11  1  0
  5 13  2  0
 13 14  1  0
  1 15  1  0
 14 15  2  0
  2 16  1  0
  4 17  1  0
  3 17  1  0
  4 18  1  0
  1 19  2  0
  5 19  1  0
  7 20  1  0
  8 20  2  0
  8 21  1  0
 21 22  2  0
 23 24  1  0
 23 25  1  0
 23 26  1  0
 22 27  1  0
  7 27  2  0
 12 28  1  0
 11 28  2  0
 13 29  1  0
 12 29  1  0
  2 30  1  0
 18 30  1  0
  3 30  1  0
 12 31  2  0
  6 31  1  0
  7 32  1  0
  6 32  1  0
 22 33  1  0
 16 34  1  0
  1 34  1  0
 36 37  2  0
 23 37  1  1
 35 37  2  0
 37 33  1  1
 21 38  1  0
  2 39  1  6
  2 40  1  0
  3 41  1  1
  3 42  1  0
  4 43  1  6
  4 44  1  0
  5 45  1  0
  8 46  1  0
  9 47  1  1
  9 48  1  0
  9 49  1  0
 11 50  1  0
 14 51  1  0
 15 52  1  0
 16 53  1  1
 16 54  1  0
 17 55  1  1
 17 56  1  0
 18 57  1  6
 18 58  1  0
 19 59  1  0
 20 60  1  0
 24 61  1  1
 24 62  1  0
 24 63  1  0
 25 64  1  6
 25 65  1  0
 25 66  1  0
 26 67  1  6
 26 68  1  0
 26 69  1  0
 27 70  1  0
 29 71  1  0
 32 72  1  0
 33 73  1  0
M  END
