1T40_ID5_A_320
     RDKit          3D

 38 40  0  0  0  0  0  0  0  0999 V2000
    2.6465   -0.6834    1.5741 C   0  0  0  0  0  0  0  0  0  0  0  0
    2.6958   -0.4717   -1.2116 C   0  0  0  0  0  0  0  0  0  0  0  0
    3.0882   -1.7801    0.8052 C   0  0  0  0  0  0  0  0  0  0  0  0
    2.2403    0.5000    0.9540 C   0  0  0  0  0  0  0  0  0  0  0  0
    2.2708    0.6075   -0.4357 C   0  0  0  0  0  0  0  0  0  0  0  0
    3.0895   -1.6773   -0.6052 C   0  0  0  0  0  0  0  0  0  0  0  0
    0.3882    2.5897    1.4256 F   0  0  0  0  0  0  0  0  0  0  0  0
    1.8234    1.5494    1.7046 F   0  0  0  0  0  0  0  0  0  0  0  0
    3.5237   -2.8050   -1.4615 C   0  0  0  0  0  0  0  0  0  0  0  0
    1.4496   -3.0958    0.3160 C   0  0  0  0  0  0  0  0  0  0  0  0
    0.2333   -1.2217    4.3246 F   0  0  0  0  0  0  0  0  0  0  0  0
    3.5500   -2.9660    1.4054 O   0  0  0  0  0  0  0  0  0  0  0  0
    4.4213   -2.6151   -2.3275 O   0  0  0  0  0  0  0  0  0  0  0  0
    1.7257   -4.3059   -0.5165 C   0  0  0  0  0  0  0  0  0  0  0  0
    3.2850   -4.2904    0.9449 C   0  0  0  0  0  0  0  0  0  0  0  0
    1.3863   -1.8429   -0.1982 N   0  0  0  0  0  0  0  0  0  0  0  0
    1.0516   -3.1367    1.9621 S   0  0  0  0  0  0  0  0  0  0  0  0
    1.1140    0.9577   -0.6945 F   0  0  0  0  0  0  0  0  0  0  0  0
    0.8189   -1.4749    2.0180 C   0  0  0  0  0  0  0  0  0  0  0  0
    0.5315    1.2547    1.6144 C   0  0  0  0  0  0  0  0  0  0  0  0
    1.0426   -0.9423    0.7577 C   0  0  0  0  0  0  0  0  0  0  0  0
    0.4503   -0.6798    3.1008 C   0  0  0  0  0  0  0  0  0  0  0  0
    0.3074    0.7012    2.8914 C   0  0  0  0  0  0  0  0  0  0  0  0
    0.9008    0.4295    0.5366 C   0  0  0  0  0  0  0  0  0  0  0  0
    2.4572   -5.0385    1.9410 C   0  0  0  0  0  0  0  0  0  0  0  0
    2.6489   -4.8238    3.3023 O   0  0  0  0  0  0  0  0  0  0  0  0
    1.6107   -5.8855    1.5498 O   0  0  0  0  0  0  0  0  0  0  0  0
    2.9149   -4.0983   -1.3400 N   0  0  0  0  0  0  0  0  0  0  0  0
    2.6220   -0.7301    2.6533 H   0  0  0  0  0  0  0  0  0  0  0  0
    2.7014   -0.3711   -2.2902 H   0  0  0  0  0  0  0  0  0  0  0  0
    1.9608    1.5275   -0.9146 H   0  0  0  0  0  0  0  0  0  0  0  0
    0.8526   -4.5203   -1.1691 H   0  0  0  0  0  0  0  0  0  0  0  0
    1.8873   -5.1756    0.1562 H   0  0  0  0  0  0  0  0  0  0  0  0
    2.7941   -4.2626   -0.0518 H   0  0  0  0  0  0  0  0  0  0  0  0
    4.2521   -4.8219    0.8281 H   0  0  0  0  0  0  0  0  0  0  0  0
    0.0224    1.3436    3.7146 H   0  0  0  0  0  0  0  0  0  0  0  0
    2.1035   -5.3299    3.9897 H   0  0  0  0  0  0  0  0  0  0  0  0
    3.3601   -4.9143   -1.8192 H   0  0  0  0  0  0  0  0  0  0  0  0
  1  3  4  0
  1  4  4  0
  2  5  4  0
  4  5  4  0
  2  6  4  0
  3  6  4  0
  4  8  1  0
  6  9  1  0
  3 12  1  0
  9 13  2  0
 10 14  1  0
 12 15  1  0
 10 16  4  0
 10 17  4  0
 17 19  4  0
  7 20  1  0
 16 21  4  0
 19 21  4  0
 11 22  1  0
 19 22  4  0
 20 23  4  0
 22 23  4  0
 18 24  1  0
 20 24  4  0
 21 24  4  0
 15 25  1  0
 25 26  1  0
 25 27  2  0
  9 28  1  0
 14 28  1  0
  1 29  1  0
  2 30  1  0
  5 31  1  0
 14 32  1  0
 14 33  1  0
 15 34  1  0
 15 35  1  0
 23 36  1  0
 26 37  1  0
 28 38  1  0
M  END
