7C0U_FGO_B_506
     RDKit          3D

 71 76  0  0  0  0  0  0  0  0999 V2000
    0.1823   -0.0363    4.4246 C   0  0  1  0  0  0  0  0  0  0  0  0
   -0.2703    0.0770    2.2172 C   0  0  1  0  0  0  0  0  0  0  0  0
   -0.9041    0.8159   -0.0943 C   0  0  0  0  0  0  0  0  0  0  0  0
   -1.7485    1.7074   -0.6583 C   0  0  0  0  0  0  0  0  0  0  0  0
   -2.1009    1.6801    1.4274 C   0  0  0  0  0  0  0  0  0  0  0  0
   -1.6513    1.9959   -2.0136 C   0  0  0  0  0  0  0  0  0  0  0  0
    0.1681    0.4561   -2.1424 C   0  0  0  0  0  0  0  0  0  0  0  0
    1.1347    0.6736    2.3338 C   0  0  1  0  0  0  0  0  0  0  0  0
    1.5207    0.3111    3.7435 C   0  0  2  0  0  0  0  0  0  0  0  0
    2.1735    0.0446    1.3891 C   0  0  0  0  0  0  0  0  0  0  0  0
    1.8660    3.4739    3.6390 O   0  0  0  0  0  0  0  0  0  0  0  0
    1.1550    2.1600    3.8611 P   0  0  1  0  0  5  0  0  0  0  0  0
   -0.1462    2.0795    2.7795 O   0  0  0  0  0  0  0  0  0  0  0  0
    2.2631    0.8834    3.5905 O   0  0  0  0  0  0  0  0  0  0  0  0
    1.6843   -0.0993    2.7495 C   0  0  2  0  0  0  0  0  0  0  0  0
    2.6567   -0.4904    1.6201 C   0  0  1  0  0  0  0  0  0  0  0  0
    2.6339   -2.0038    1.3563 C   0  0  0  0  0  0  0  0  0  0  0  0
    3.9295   -2.5386    1.4614 O   0  0  0  0  0  0  0  0  0  0  0  0
    2.3034    0.1927    0.4312 O   0  0  0  0  0  0  0  0  0  0  0  0
    1.2310    1.0501    0.7421 C   0  0  1  0  0  0  0  0  0  0  0  0
    0.2962    1.1426   -0.3972 N   0  0  0  0  0  4  0  0  0  0  0  0
   -1.0383    0.9174   -0.1907 C   0  0  0  0  0  0  0  0  0  0  0  0
   -1.9437    1.0204   -1.2404 C   0  0  0  0  0  0  0  0  0  0  0  0
   -1.4671    1.3564   -2.5028 C   0  0  0  0  0  0  0  0  0  0  0  0
   -2.2634    1.4395   -3.4722 O   0  0  0  0  0  0  0  0  0  0  0  0
   -0.1420    1.5908   -2.6859 N   0  0  0  0  0  4  0  0  0  0  0  0
    0.7393    1.4915   -1.6521 C   0  0  0  0  0  0  0  0  0  0  0  0
    1.9632    1.7222   -1.8642 O   0  0  0  0  0  0  0  0  0  0  0  0
    0.5374    0.5047    1.9804 C   0  0  2  0  0  0  0  0  0  0  0  0
   -0.1037    1.5187    2.7100 O   0  0  0  0  0  0  0  0  0  0  0  0
    0.5645    2.0939    5.4618 O   0  0  0  0  0  0  0  0  0  0  0  0
   -0.0531    0.8417    5.6546 C   0  0  0  0  0  0  0  0  0  0  0  0
    2.4944   -0.8617    3.6251 C   0  0  0  0  0  0  0  0  0  0  0  0
    3.2050   -0.6551    2.2848 C   0  0  2  0  0  0  0  0  0  0  0  0
    4.3598    0.1393    2.4545 O   0  0  0  0  0  0  0  0  0  0  0  0
    3.5637   -1.9000    1.7407 O   0  0  0  0  0  0  0  0  0  0  0  0
   -0.8581    0.1683    3.4941 O   0  0  0  0  0  0  0  0  0  0  0  0
   -1.1136    0.7630    1.2300 N   0  0  0  0  0  4  0  0  0  0  0  0
   -2.5223    2.2811    0.2802 N   0  0  0  0  0  0  0  0  0  0  0  0
    0.0708    0.1953   -0.7998 N   0  0  0  0  0  0  0  0  0  0  0  0
    1.1854   -0.1876   -2.9137 N   0  0  0  0  0  0  0  0  0  0  0  0
   -0.6918    1.3489   -2.7409 N   0  0  0  0  0  4  0  0  0  0  0  0
   -2.4114    2.8413   -2.5558 O   0  0  0  0  0  0  0  0  0  0  0  0
    0.1523   -1.0991    4.7522 H   0  0  0  0  0  0  0  0  0  0  0  0
   -0.2143   -1.0025    1.9364 H   0  0  0  0  0  0  0  0  0  0  0  0
   -2.4891    1.9523    2.4012 H   0  0  0  0  0  0  0  0  0  0  0  0
    1.1079    1.7815    2.2348 H   0  0  0  0  0  0  0  0  0  0  0  0
    2.0414    1.1706    4.2235 H   0  0  0  0  0  0  0  0  0  0  0  0
    1.7005   -0.6859    0.6981 H   0  0  0  0  0  0  0  0  0  0  0  0
    2.6566    0.8269    0.7642 H   0  0  0  0  0  0  0  0  0  0  0  0
   -0.8523    2.6367    3.1894 H   0  0  0  0  0  0  0  0  0  0  0  0
    1.2872   -0.9778    3.3075 H   0  0  0  0  0  0  0  0  0  0  0  0
    3.6995   -0.2048    1.8785 H   0  0  0  0  0  0  0  0  0  0  0  0
    1.9756   -2.5082    2.0990 H   0  0  0  0  0  0  0  0  0  0  0  0
    2.2145   -2.2037    0.3419 H   0  0  0  0  0  0  0  0  0  0  0  0
    4.3784   -2.3496    0.5932 H   0  0  0  0  0  0  0  0  0  0  0  0
    1.6679    2.0480    0.9804 H   0  0  0  0  0  0  0  0  0  0  0  0
   -1.4123    0.6574    0.7934 H   0  0  0  0  0  0  0  0  0  0  0  0
   -2.9998    0.8422   -1.0761 H   0  0  0  0  0  0  0  0  0  0  0  0
    0.2048    1.8524   -3.6370 H   0  0  0  0  0  0  0  0  0  0  0  0
   -0.1871   -0.3005    1.7104 H   0  0  0  0  0  0  0  0  0  0  0  0
   -0.9331    1.7455    2.2117 H   0  0  0  0  0  0  0  0  0  0  0  0
    0.3613    0.3177    6.5450 H   0  0  0  0  0  0  0  0  0  0  0  0
   -1.1511    0.9650    5.7925 H   0  0  0  0  0  0  0  0  0  0  0  0
    3.2075   -0.8744    4.4807 H   0  0  0  0  0  0  0  0  0  0  0  0
    1.9495   -1.8347    3.6040 H   0  0  0  0  0  0  0  0  0  0  0  0
    4.0800    1.0302    2.7941 H   0  0  0  0  0  0  0  0  0  0  0  0
    4.1468   -1.7132    0.9632 H   0  0  0  0  0  0  0  0  0  0  0  0
    1.3191    0.0483   -3.9174 H   0  0  0  0  0  0  0  0  0  0  0  0
    1.8188   -0.8893   -2.4691 H   0  0  0  0  0  0  0  0  0  0  0  0
   -0.5910    1.5586   -3.7629 H   0  0  0  0  0  0  0  0  0  0  0  0
  3  4  4  0
  4  6  4  0
  2  8  1  0
  8  9  1  0
  1  9  1  0
  8 10  1  0
 11 12  2  0
 12 13  1  6
 12 14  1  0
 15 14  1  0
 15 16  1  0
 16 17  1  0
 17 18  1  0
 16 19  1  0
 19 20  1  0
 20 21  1  0
 21 22  4  0
 22 23  4  0
 23 24  4  0
 24 25  2  0
 24 26  4  0
 26 27  4  0
 21 27  4  0
 27 28  2  0
 20 29  1  0
 15 29  1  0
 29 30  1  0
 12 31  1  0
  1 32  1  0
 31 32  1  0
  9 33  1  0
 10 34  1  0
 33 34  1  0
 34 35  1  1
 34 36  1  0
  2 37  1  0
  1 37  1  0
  2 38  1  0
  3 38  4  0
  5 38  4  0
  4 39  4  0
  5 39  4  0
  7 40  4  0
  3 40  4  0
  7 41  1  0
  7 42  4  0
  6 42  4  0
  6 43  2  0
  1 44  1  1
  2 45  1  6
  5 46  1  0
  8 47  1  1
  9 48  1  1
 10 49  1  0
 10 50  1  0
 13 51  1  0
 15 52  1  1
 16 53  1  1
 17 54  1  0
 17 55  1  0
 18 56  1  0
 20 57  1  1
 22 58  1  0
 23 59  1  0
 26 60  1  0
 29 61  1  6
 30 62  1  0
 32 63  1  0
 32 64  1  0
 33 65  1  0
 33 66  1  0
 35 67  1  0
 36 68  1  0
 41 69  1  0
 41 70  1  0
 42 71  1  0
M  CHG  4  21   1  26   1  38   1  42   1
M  END
