1Q41_IXM_A_451
     RDKit          3D

 32 35  0  0  0  0  0  0  0  0999 V2000
   -0.6024   -0.0572    2.1092 C   0  0  0  0  0  0  0  0  0  0  0  0
   -0.7583   -0.3152    0.6748 C   0  0  0  0  0  0  0  0  0  0  0  0
    0.6223    0.5530    2.2866 C   0  0  0  0  0  0  0  0  0  0  0  0
    1.3245    0.7231    1.0608 N   0  0  0  0  0  0  0  0  0  0  0  0
    1.0758    0.9217    3.5527 C   0  0  0  0  0  0  0  0  0  0  0  0
    0.2499    0.6612    4.6582 C   0  0  0  0  0  0  0  0  0  0  0  0
   -1.0006    0.0362    4.4812 C   0  0  0  0  0  0  0  0  0  0  0  0
   -1.4376   -0.3317    3.1973 C   0  0  0  0  0  0  0  0  0  0  0  0
    0.4985    0.1360    0.0473 C   0  0  0  0  0  0  0  0  0  0  0  0
    0.8520    0.0589   -1.2520 C   0  0  0  0  0  0  0  0  0  0  0  0
    1.8921    0.8550   -1.9260 C   0  0  0  0  0  0  0  0  0  0  0  0
    1.8644    0.6506   -3.3331 N   0  0  0  0  0  0  0  0  0  0  0  0
    0.8464   -0.3177   -3.5408 C   0  0  0  0  0  0  0  0  0  0  0  0
    0.2427   -0.7113   -2.3554 C   0  0  0  0  0  0  0  0  0  0  0  0
    0.5474   -0.9329   -4.7558 C   0  0  0  0  0  0  0  0  0  0  0  0
   -0.3715   -1.9925   -4.7591 C   0  0  0  0  0  0  0  0  0  0  0  0
   -0.9325   -2.4480   -3.5517 C   0  0  0  0  0  0  0  0  0  0  0  0
   -0.6034   -1.8281   -2.3350 C   0  0  0  0  0  0  0  0  0  0  0  0
    2.6790    1.6648   -1.3695 O   0  0  0  0  0  0  0  0  0  0  0  0
   -1.8740   -0.5227    0.0463 N   0  0  0  0  0  0  0  0  0  0  0  0
   -3.0632   -0.7368    0.7022 O   0  0  0  0  0  0  0  0  0  0  0  0
    2.3111    1.0503    0.9730 H   0  0  0  0  0  0  0  0  0  0  0  0
    2.0400    1.3961    3.6810 H   0  0  0  0  0  0  0  0  0  0  0  0
    0.5778    0.9379    5.6518 H   0  0  0  0  0  0  0  0  0  0  0  0
   -1.6265   -0.1664    5.3406 H   0  0  0  0  0  0  0  0  0  0  0  0
   -2.3893   -0.8277    3.0741 H   0  0  0  0  0  0  0  0  0  0  0  0
    2.5001    1.0693   -4.0479 H   0  0  0  0  0  0  0  0  0  0  0  0
    1.0320   -0.6187   -5.6711 H   0  0  0  0  0  0  0  0  0  0  0  0
   -0.6180   -2.4886   -5.6888 H   0  0  0  0  0  0  0  0  0  0  0  0
   -1.5964   -3.3028   -3.5571 H   0  0  0  0  0  0  0  0  0  0  0  0
   -0.9589   -2.2583   -1.4121 H   0  0  0  0  0  0  0  0  0  0  0  0
   -3.9110   -0.8959    0.1731 H   0  0  0  0  0  0  0  0  0  0  0  0
  1  2  1  0
  1  3  2  0
  3  4  1  0
  3  5  1  0
  5  6  2  0
  6  7  1  0
  1  8  1  0
  7  8  2  0
  2  9  1  0
  4  9  1  0
  9 10  2  0
 10 11  1  0
 11 12  1  0
 12 13  1  0
 10 14  1  0
 13 14  2  0
 13 15  1  0
 15 16  2  0
 16 17  1  0
 14 18  1  0
 17 18  2  0
 11 19  2  0
  2 20  2  0
 20 21  1  0
  4 22  1  0
  5 23  1  0
  6 24  1  0
  7 25  1  0
  8 26  1  0
 12 27  1  0
 15 28  1  0
 16 29  1  0
 17 30  1  0
 18 31  1  0
 21 32  1  0
M  END
