7V8Z_5YH_A_601
     RDKit          3D

 42 45  0  0  0  0  0  0  0  0999 V2000
    0.5057    1.2758    1.6849 C   0  0  0  0  0  0  0  0  0  0  0  0
   -2.5253    1.0106    1.0071 C   0  0  0  0  0  0  0  0  0  0  0  0
   -4.0387    0.5386   -0.8588 C   0  0  0  0  0  0  0  0  0  0  0  0
   -2.9475    0.3955   -1.7328 C   0  0  0  0  0  0  0  0  0  0  0  0
    0.4930    0.7711   -0.8043 C   0  0  0  0  0  0  0  0  0  0  0  0
    1.8626    0.8120   -1.0934 C   0  0  0  0  0  0  0  0  0  0  0  0
    2.2697    0.5738   -2.4186 C   0  0  0  0  0  0  0  0  0  0  0  0
   -0.0528    0.2804   -3.1222 C   0  0  0  0  0  0  0  0  0  0  0  0
    0.6224    0.0505    2.6199 C   0  0  2  0  0  0  0  0  0  0  0  0
    1.4430   -1.1176    2.0208 C   0  0  0  0  0  0  0  0  0  0  0  0
    0.6323   -2.6246    0.0697 C   0  0  0  0  0  0  0  0  0  0  0  0
   -0.0934   -3.9927    0.0412 C   0  0  0  0  0  0  0  0  0  0  0  0
   -0.0134   -3.2045    2.2155 C   0  0  0  0  0  0  0  0  0  0  0  0
   -1.4495    0.8398    0.1287 C   0  0  0  0  0  0  0  0  0  0  0  0
   -3.8282    0.8494    0.5020 C   0  0  0  0  0  0  0  0  0  0  0  0
   -1.6677    0.5578   -1.2058 C   0  0  0  0  0  0  0  0  0  0  0  0
   -0.4295    0.5168   -1.8017 C   0  0  0  0  0  0  0  0  0  0  0  0
    1.3186    0.3082   -3.4271 C   0  0  0  0  0  0  0  0  0  0  0  0
   -5.3016    0.3906   -1.3288 F   0  0  0  0  0  0  0  0  0  0  0  0
    1.7302    0.0814   -4.6986 F   0  0  0  0  0  0  0  0  0  0  0  0
    0.5950   -2.1747    1.4596 N   0  0  0  0  0  0  0  0  0  0  0  0
   -0.4515   -4.2801    1.4214 N   0  0  0  0  0  0  0  0  0  0  0  0
   -0.1217    0.9571    0.3947 N   0  0  0  0  0  0  0  0  0  0  0  0
   -0.6495   -0.3866    3.0244 O   0  0  0  0  0  0  0  0  0  0  0  0
   -0.1165   -3.1872    3.4708 O   0  0  0  0  0  0  0  0  0  0  0  0
    1.5136    1.7122    1.5272 H   0  0  0  0  0  0  0  0  0  0  0  0
   -0.0846    2.0677    2.1942 H   0  0  0  0  0  0  0  0  0  0  0  0
   -2.3771    1.2757    2.0437 H   0  0  0  0  0  0  0  0  0  0  0  0
   -3.0997    0.1737   -2.7811 H   0  0  0  0  0  0  0  0  0  0  0  0
    2.6028    1.0167   -0.3335 H   0  0  0  0  0  0  0  0  0  0  0  0
    3.3230    0.5956   -2.6662 H   0  0  0  0  0  0  0  0  0  0  0  0
   -0.7893    0.0806   -3.8896 H   0  0  0  0  0  0  0  0  0  0  0  0
    1.1858    0.3996    3.5184 H   0  0  0  0  0  0  0  0  0  0  0  0
    2.1485   -0.7454    1.2504 H   0  0  0  0  0  0  0  0  0  0  0  0
    2.0742   -1.5630    2.8210 H   0  0  0  0  0  0  0  0  0  0  0  0
    1.6854   -2.7381   -0.2675 H   0  0  0  0  0  0  0  0  0  0  0  0
    0.1028   -1.9028   -0.5796 H   0  0  0  0  0  0  0  0  0  0  0  0
    0.5788   -4.7876   -0.3469 H   0  0  0  0  0  0  0  0  0  0  0  0
   -1.0128   -3.9388   -0.5805 H   0  0  0  0  0  0  0  0  0  0  0  0
   -4.6767    0.9724    1.1625 H   0  0  0  0  0  0  0  0  0  0  0  0
   -0.9285   -5.1429    1.7652 H   0  0  0  0  0  0  0  0  0  0  0  0
   -0.9504    0.2228    3.7485 H   0  0  0  0  0  0  0  0  0  0  0  0
  3  4  1  0
  5  6  1  0
  6  7  2  0
  1  9  1  0
  9 10  1  0
 11 12  1  0
  2 14  2  0
  2 15  1  0
  3 15  2  0
 14 16  1  0
  4 16  2  0
  5 17  2  0
 16 17  1  0
  8 17  1  0
  7 18  1  0
  8 18  2  0
  3 19  1  0
 18 20  1  0
 13 21  1  0
 11 21  1  0
 10 21  1  0
 13 22  1  0
 12 22  1  0
  1 23  1  0
 14 23  1  0
  5 23  1  0
  9 24  1  0
 13 25  2  0
  1 26  1  0
  1 27  1  0
  2 28  1  0
  4 29  1  0
  6 30  1  0
  7 31  1  0
  8 32  1  0
  9 33  1  1
 10 34  1  0
 10 35  1  0
 11 36  1  0
 11 37  1  0
 12 38  1  0
 12 39  1  0
 15 40  1  0
 22 41  1  0
 24 42  1  0
M  END
