7NGW_UAW_A_301
     RDKit          3D

 17 18  0  0  0  0  0  0  0  0999 V2000
  -16.0987  -33.3199    0.4688 C   0  0  0  0  0  0  0  0  0  0  0  0
  -14.4095  -34.1813    1.9634 C   0  0  0  0  0  0  0  0  0  0  0  0
  -13.1260  -32.4845    3.2492 C   0  0  0  0  0  0  0  0  0  0  0  0
  -11.9792  -33.2158    3.5867 C   0  0  0  0  0  0  0  0  0  0  0  0
  -13.1572  -31.1427    3.6188 C   0  0  0  0  0  0  0  0  0  0  0  0
  -12.1549  -30.5868    4.3822 C   0  0  0  0  0  0  0  0  0  0  0  0
  -11.0190  -31.3126    4.6794 C   0  0  0  0  0  0  0  0  0  0  0  0
  -10.9796  -32.6298    4.3145 C   0  0  0  0  0  0  0  0  0  0  0  0
  -15.6086  -35.7579    0.5521 C   0  0  0  0  0  0  0  0  0  0  0  0
  -16.2144  -35.9129   -0.8031 C   0  0  0  0  0  0  0  0  0  0  0  0
  -15.1574  -34.3876    0.8504 N   0  0  0  0  0  0  0  0  0  0  0  0
  -14.1241  -32.9327    2.4424 N   0  0  0  0  0  0  0  0  0  0  0  0
  -16.5646  -33.5010   -0.9424 C   0  0  0  0  0  0  0  0  0  0  0  0
  -18.0221  -35.0598   -2.3194 C   0  0  0  0  0  0  0  0  0  0  0  0
  -17.2424  -34.8356   -1.0504 C   0  0  1  0  0  0  0  0  0  0  0  0
  -13.5170  -35.1394    2.2610 O   0  0  0  0  0  0  0  0  0  0  0  0
  -10.1237  -30.5932    5.3888 O   0  0  0  0  0  0  0  0  0  0  0  0
  3  4  2  0
  3  5  1  0
  5  6  2  0
  6  7  1  0
  4  8  1  0
  7  8  2  0
  9 10  1  0
  2 11  1  0
  9 11  1  0
  1 11  1  0
  3 12  1  0
  2 12  1  0
  1 13  1  0
 10 15  1  0
 13 15  1  0
 15 14  1  6
  2 16  2  0
  7 17  1  0
M  END
