7UQ3_O2U_A_502
     RDKit          3D

 19 19  0  0  0  0  0  0  0  0999 V2000
    7.2039  142.7747  101.8240 C   0  0  0  0  0  0  0  0  0  0  0  0
    8.2099  142.1001  100.9389 C   0  0  2  0  0  0  0  0  0  0  0  0
    7.5550  141.6151   99.6340 C   0  0  2  0  0  0  0  0  0  0  0  0
    8.5524  140.9345   98.7479 C   0  0  0  0  0  0  0  0  0  0  0  0
    8.7445  140.9312  101.8200 C   0  0  1  0  0  0  0  0  0  0  0  0
    7.9962  141.0751  103.1045 C   0  0  0  0  0  0  0  0  0  0  0  0
    7.0765  142.1437  103.0791 N   0  0  0  0  0  0  0  0  0  0  0  0
    6.3687  142.6094  104.1356 O   0  0  0  0  0  0  0  0  0  0  0  0
    8.6169  139.5450   98.7132 O   0  0  0  0  0  0  0  0  0  0  0  0
    9.3506  141.6194   98.0540 O   0  0  0  0  0  0  0  0  0  0  0  0
    8.1650  140.3369  104.1105 O   0  0  0  0  0  0  0  0  0  0  0  0
    6.5650  143.8147  101.5122 O   0  0  0  0  0  0  0  0  0  0  0  0
    9.0293  142.8189  100.7149 H   0  0  0  0  0  0  0  0  0  0  0  0
    7.1310  142.4838   99.0843 H   0  0  0  0  0  0  0  0  0  0  0  0
    6.7184  140.9177   99.8593 H   0  0  0  0  0  0  0  0  0  0  0  0
    8.5372  139.9321  101.3803 H   0  0  0  0  0  0  0  0  0  0  0  0
    9.8347  141.0439  102.0013 H   0  0  0  0  0  0  0  0  0  0  0  0
    5.4349  142.6669  103.8085 H   0  0  0  0  0  0  0  0  0  0  0  0
    8.4967  139.0412   97.8428 H   0  0  0  0  0  0  0  0  0  0  0  0
  1  2  1  0
  2  3  1  0
  3  4  1  0
  2  5  1  0
  5  6  1  0
  6  7  1  0
  1  7  1  0
  7  8  1  0
  4  9  1  0
  4 10  2  0
  6 11  2  0
  1 12  2  0
  2 13  1  6
  3 14  1  6
  3 15  1  0
  5 16  1  6
  5 17  1  0
  8 18  1  0
  9 19  1  0
M  END
