8BN6_R53_A_303
     RDKit          3D

 45 48  0  0  0  0  0  0  0  0999 V2000
    0.0099   21.1209    4.5107 C   0  0  0  0  0  0  0  0  0  0  0  0
   -6.3022   25.7901    1.4497 C   0  0  0  0  0  0  0  0  0  0  0  0
   -1.2979   22.9141    3.5635 C   0  0  0  0  0  0  0  0  0  0  0  0
   -2.7501   23.4601    2.0102 C   0  0  0  0  0  0  0  0  0  0  0  0
   -3.6323   22.2261   -1.2553 C   0  0  0  0  0  0  0  0  0  0  0  0
   -3.3049   23.5915    0.7105 C   0  0  0  0  0  0  0  0  0  0  0  0
   -1.5940   22.0314   -0.0054 C   0  0  0  0  0  0  0  0  0  0  0  0
   -0.9026   21.5265   -1.2571 C   0  0  0  0  0  0  0  0  0  0  0  0
   -2.8811   21.7885   -2.4922 C   0  0  0  0  0  0  0  0  0  0  0  0
   -4.4732   24.3256    0.5520 C   0  0  0  0  0  0  0  0  0  0  0  0
   -5.0519   24.9810    1.6328 C   0  0  0  0  0  0  0  0  0  0  0  0
   -0.1535   19.3062    2.8352 N   0  0  0  0  0  4  0  0  0  0  0  0
   -0.1207   22.4032    4.0671 N   0  0  0  0  0  0  0  0  0  0  0  0
    0.6435   20.1456    3.6053 C   0  0  0  0  0  0  0  0  0  0  0  0
   -1.5821   22.7701    2.3104 N   0  0  0  0  0  0  0  0  0  0  0  0
    0.0675   17.4498    1.1771 C   0  0  0  0  0  0  0  0  0  0  0  0
    0.6349   18.4911    2.0933 C   0  0  0  0  0  0  0  0  0  0  0  0
   -0.4178   20.7816    5.6169 O   0  0  0  0  0  0  0  0  0  0  0  0
   -2.6989   22.9210   -0.3648 N   0  0  0  0  0  0  0  0  0  0  0  0
   -1.8301   20.8926   -2.1421 O   0  0  0  0  0  0  0  0  0  0  0  0
   -6.6241   26.1513    0.2988 O   0  0  0  0  0  0  0  0  0  0  0  0
   -7.0125   26.0017    2.4617 O   0  0  0  0  0  0  0  0  0  0  0  0
   -4.5105   24.8317    2.9083 C   0  0  0  0  0  0  0  0  0  0  0  0
   -3.3224   24.1323    3.0656 C   0  0  0  0  0  0  0  0  0  0  0  0
   -2.4316   23.8430    4.5317 S   0  0  0  0  0  0  0  0  0  0  0  0
    1.9442   19.8613    3.2767 C   0  0  0  0  0  0  0  0  0  0  0  0
    3.3564   20.6090    3.8905 Cl  0  0  0  0  0  0  0  0  0  0  0  0
    1.9426   18.8674    2.3301 C   0  0  0  0  0  0  0  0  0  0  0  0
    3.3562   18.1390    1.6787 Cl  0  0  0  0  0  0  0  0  0  0  0  0
   -4.4275   22.8869   -1.5311 H   0  0  0  0  0  0  0  0  0  0  0  0
   -4.0472   21.3742   -0.7583 H   0  0  0  0  0  0  0  0  0  0  0  0
   -1.9755   21.1991    0.5482 H   0  0  0  0  0  0  0  0  0  0  0  0
   -0.8885   22.5725    0.5901 H   0  0  0  0  0  0  0  0  0  0  0  0
   -0.4480   22.3531   -1.7620 H   0  0  0  0  0  0  0  0  0  0  0  0
   -0.1647   20.8072   -0.9690 H   0  0  0  0  0  0  0  0  0  0  0  0
   -3.5569   21.2958   -3.1596 H   0  0  0  0  0  0  0  0  0  0  0  0
   -2.4600   22.6503   -2.9663 H   0  0  0  0  0  0  0  0  0  0  0  0
   -4.9165   24.3851   -0.3781 H   0  0  0  0  0  0  0  0  0  0  0  0
   -1.1379   19.3044    2.8296 H   0  0  0  0  0  0  0  0  0  0  0  0
    0.6653   22.9944    4.1085 H   0  0  0  0  0  0  0  0  0  0  0  0
   -0.9991   17.4430    1.2620 H   0  0  0  0  0  0  0  0  0  0  0  0
    0.3435   17.6741    0.1679 H   0  0  0  0  0  0  0  0  0  0  0  0
    0.4529   16.4889    1.4472 H   0  0  0  0  0  0  0  0  0  0  0  0
   -6.0578   25.9689   -0.4251 H   0  0  0  0  0  0  0  0  0  0  0  0
   -4.9886   25.2375    3.7279 H   0  0  0  0  0  0  0  0  0  0  0  0
  4  6  4  0
  7  8  1  0
  5  9  1  0
  6 10  4  0
 10 11  4  0
  2 11  1  0
  3 13  1  0
  1 13  1  0
  1 14  1  0
 12 14  4  0
  4 15  4  0
  3 15  4  0
 12 17  4  0
 16 17  1  0
  1 18  2  0
  5 19  1  0
  7 19  1  0
  6 19  1  0
  9 20  1  0
  8 20  1  0
  2 21  1  0
  2 22  2  0
 11 23  4  0
  4 24  4  0
 23 24  4  0
  3 25  4  0
 24 25  4  0
 14 26  4  0
 26 27  1  0
 26 28  4  0
 17 28  4  0
 28 29  1  0
  5 30  1  0
  5 31  1  0
  7 32  1  0
  7 33  1  0
  8 34  1  0
  8 35  1  0
  9 36  1  0
  9 37  1  0
 10 38  1  0
 12 39  1  0
 13 40  1  0
 16 41  1  0
 16 42  1  0
 16 43  1  0
 21 44  1  0
 23 45  1  0
M  CHG  1  12   1
M  END
