7ZZW_KKW_B_610
     RDKit          3D

 29 33  0  0  0  0  0  0  0  0999 V2000
   -5.8216  -53.9319   37.8929 C   0  0  0  0  0  0  0  0  0  0  0  0
   -4.9918  -53.8134   36.7488 C   0  0  0  0  0  0  0  0  0  0  0  0
   -1.2667  -46.5042   34.5698 C   0  0  0  0  0  0  0  0  0  0  0  0
   -4.7641  -52.5429   36.3548 C   0  0  0  0  0  0  0  0  0  0  0  0
   -4.4323  -54.8168   36.0474 C   0  0  0  0  0  0  0  0  0  0  0  0
   -3.6611  -54.4976   34.9706 C   0  0  0  0  0  0  0  0  0  0  0  0
   -1.8037  -46.1973   35.9488 C   0  0  2  0  0  0  0  0  0  0  0  0
   -1.0159  -44.7349   32.8506 C   0  0  0  0  0  0  0  0  0  0  0  0
   -1.2992  -42.8042   31.4559 C   0  0  0  0  0  0  0  0  0  0  0  0
   -1.9243  -43.6394   30.5560 C   0  0  0  0  0  0  0  0  0  0  0  0
   -0.5024  -45.3005   34.1241 C   0  0  1  0  0  0  0  0  0  0  0  0
   -2.1026  -44.9937   30.7762 C   0  0  0  0  0  0  0  0  0  0  0  0
   -1.6445  -45.5655   31.9417 C   0  0  0  0  0  0  0  0  0  0  0  0
   -5.2749  -47.6877   36.6974 C   0  0  0  0  0  0  0  0  0  0  0  0
   -5.8941  -49.0372   36.5763 C   0  0  0  0  0  0  0  0  0  0  0  0
   -3.6785  -49.9268   35.8092 C   0  0  0  0  0  0  0  0  0  0  0  0
   -2.9944  -48.8062   36.6027 C   0  0  0  0  0  0  0  0  0  0  0  0
   -5.2815  -51.4120   36.9904 C   0  0  0  0  0  0  0  0  0  0  0  0
   -6.3170  -52.8044   38.4985 C   0  0  0  0  0  0  0  0  0  0  0  0
   -0.5481  -44.3499   35.2708 C   0  0  0  0  0  0  0  0  0  0  0  0
   -3.2536  -46.4591   35.9599 C   0  0  0  0  0  0  0  0  0  0  0  0
   -0.8339  -43.3840   32.6391 C   0  0  0  0  0  0  0  0  0  0  0  0
   -1.5739  -44.7864   36.1734 N   0  0  0  0  0  0  0  0  0  0  0  0
   -3.8621  -47.6450   36.4225 N   0  0  0  0  0  0  0  0  0  0  0  0
   -4.9568  -50.1307   36.4630 N   0  0  0  0  0  0  0  0  0  0  0  0
   -6.0779  -51.5493   38.0899 N   0  0  0  0  0  0  0  0  0  0  0  0
   -4.0079  -45.5412   35.5170 O   0  0  0  0  0  0  0  0  0  0  0  0
   -3.7202  -52.6090   34.9294 S   0  0  0  0  0  0  0  0  0  0  0  0
   -1.0831  -41.0945   31.1597 Cl  0  0  0  0  0  0  0  0  0  0  0  0
  1  2  2  0
  2  4  1  0
  2  5  1  0
  5  6  2  0
  3  7  1  6
  9 10  2  0
 11  8  1  6
  3 11  1  0
 10 12  1  0
 12 13  2  0
  8 13  1  0
 14 15  1  0
 16 17  1  0
  4 18  2  0
  1 19  1  0
 11 20  1  0
  7 21  1  6
  9 22  1  0
  8 22  2  0
 20 23  1  1
  7 23  1  0
 17 24  1  6
 14 24  1  1
 21 24  1  0
 16 25  1  1
 15 25  1  1
 18 25  1  0
 18 26  1  0
 19 26  2  0
 21 27  2  0
  6 28  1  0
  4 28  1  0
  9 29  1  0
M  END
$$$$
