7KB1_WBJ_B_501
     RDKit          3D

 37 37  0  0  0  0  0  0  0  0999 V2000
    1.1749  -34.5164   15.8564 C   0  0  0  0  0  0  0  0  0  0  0  0
   -1.8478  -30.0369   17.9104 C   0  0  0  0  0  0  0  0  0  0  0  0
   -2.1666  -26.7012   16.1852 C   0  0  0  0  0  0  0  0  0  0  0  0
    1.2101  -27.6866   14.6082 C   0  0  0  0  0  0  0  0  0  0  0  0
    0.0506  -27.0815   14.7584 C   0  0  0  0  0  0  0  0  0  0  0  0
   -0.9537  -27.5451   15.8135 C   0  0  0  0  0  0  0  0  0  0  0  0
    0.3168  -29.5007   16.0979 C   0  0  0  0  0  0  0  0  0  0  0  0
    0.0270  -30.9570   16.4668 C   0  0  0  0  0  0  0  0  0  0  0  0
    0.7560  -32.0437   15.9694 C   0  0  0  0  0  0  0  0  0  0  0  0
    0.3967  -33.3144   16.3825 C   0  0  0  0  0  0  0  0  0  0  0  0
   -1.3017  -32.5006   17.6992 C   0  0  0  0  0  0  0  0  0  0  0  0
   -1.0191  -31.1947   17.3459 C   0  0  0  0  0  0  0  0  0  0  0  0
   -0.8058  -28.6357   16.3888 N   0  0  0  0  0  0  0  0  0  0  0  0
   -0.6023  -33.5115   17.2188 N   0  0  0  0  0  0  0  0  0  0  0  0
    1.8273  -31.9198   15.0808 O   0  0  0  0  0  0  0  0  0  0  0  0
   -3.1527  -30.1651   17.4173 O   0  0  0  0  0  0  0  0  0  0  0  0
   -4.6909  -28.0984   17.3084 O   0  0  0  0  0  0  0  0  0  0  0  0
   -5.6052  -30.1982   18.2084 O   0  0  0  0  0  0  0  0  0  0  0  0
   -3.9392  -28.9286   19.5214 O   0  0  0  0  0  0  0  0  0  0  0  0
   -2.0736  -25.4468   16.2454 O   0  0  0  0  0  0  0  0  0  0  0  0
   -3.2580  -27.2742   16.4439 O   0  0  0  0  0  0  0  0  0  0  0  0
   -4.3775  -29.3257   18.1268 P   0  0  1  0  0  5  0  0  0  0  0  0
    1.9452  -34.1808   15.1945 H   0  0  0  0  0  0  0  0  0  0  0  0
    0.5095  -35.1685   15.3290 H   0  0  0  0  0  0  0  0  0  0  0  0
    1.6159  -35.0430   16.6766 H   0  0  0  0  0  0  0  0  0  0  0  0
   -1.4303  -29.1034   17.5955 H   0  0  0  0  0  0  0  0  0  0  0  0
   -1.8483  -30.0633   18.9806 H   0  0  0  0  0  0  0  0  0  0  0  0
    1.8752  -27.3590   13.8901 H   0  0  0  0  0  0  0  0  0  0  0  0
    1.4541  -28.4887   15.2087 H   0  0  0  0  0  0  0  0  0  0  0  0
   -0.1844  -26.2804   14.1532 H   0  0  0  0  0  0  0  0  0  0  0  0
    0.5324  -29.4464   15.0515 H   0  0  0  0  0  0  0  0  0  0  0  0
    1.1503  -29.1701   16.6830 H   0  0  0  0  0  0  0  0  0  0  0  0
   -2.0771  -32.6891   18.3531 H   0  0  0  0  0  0  0  0  0  0  0  0
    2.0932  -31.0723   14.7837 H   0  0  0  0  0  0  0  0  0  0  0  0
   -3.9021  -27.5361   17.2550 H   0  0  0  0  0  0  0  0  0  0  0  0
   -5.4053  -30.9882   18.7345 H   0  0  0  0  0  0  0  0  0  0  0  0
   -1.2583  -25.0276   16.0516 H   0  0  0  0  0  0  0  0  0  0  0  0
  4  5  2  3
  5  6  1  0
  3  6  1  0
  7  8  1  0
  8  9  4  0
  1 10  1  0
  9 10  4  0
 11 12  4  0
  2 12  1  0
  8 12  4  0
  7 13  1  0
  6 13  2  3
 11 14  4  0
 10 14  4  0
  9 15  1  0
  2 16  1  0
  3 20  1  0
  3 21  2  0
 19 22  2  0
 22 16  1  6
 17 22  1  0
 18 22  1  0
  1 23  1  0
  1 24  1  0
  1 25  1  0
  2 26  1  0
  2 27  1  0
  4 28  1  0
  4 29  1  0
  5 30  1  0
  7 31  1  0
  7 32  1  0
 11 33  1  0
 15 34  1  0
 17 35  1  0
 18 36  1  0
 20 37  1  0
M  END
