1K3U_IAD_A_801
     RDKit          3D

 35 36  0  0  0  0  0  0  0  0999 V2000
   52.0830   28.2209   10.1142 O   0  0  0  0  0  0  0  0  0  0  0  0
   51.9649   26.8645    9.8278 C   0  0  0  0  0  0  0  0  0  0  0  0
   52.9359   26.2408    9.3206 O   0  0  0  0  0  0  0  0  0  0  0  0
   50.6837   26.1465   10.1294 C   0  0  2  0  0  0  0  0  0  0  0  0
   49.6164   27.0994   10.7099 C   0  0  1  0  0  0  0  0  0  0  0  0
   48.3411   26.3820   11.0753 C   0  0  0  0  0  0  0  0  0  0  0  0
   47.6987   25.7293   10.2085 O   0  0  0  0  0  0  0  0  0  0  0  0
   47.8275   26.5010   12.3639 O   0  0  0  0  0  0  0  0  0  0  0  0
   50.1410   27.8367   11.8662 N   0  0  0  0  0  0  0  0  0  0  0  0
   49.3888   28.0925   13.0638 C   0  0  0  0  0  0  0  0  0  0  0  0
   48.8255   29.2065   13.2411 O   0  0  0  0  0  0  0  0  0  0  0  0
   49.2250   27.0168   14.0924 C   0  0  1  0  0  0  0  0  0  0  0  0
   49.5535   25.6851   13.4896 C   0  0  0  0  0  0  0  0  0  0  0  0
   49.1972   25.2446   12.2182 C   0  0  0  0  0  0  0  0  0  0  0  0
   49.7535   24.0385   11.9629 N   0  0  0  0  0  0  0  0  0  0  0  0
   50.3754   24.7027   14.0083 C   0  0  0  0  0  0  0  0  0  0  0  0
   51.0597   24.6160   15.2213 C   0  0  0  0  0  0  0  0  0  0  0  0
   50.4690   23.7202   13.0556 C   0  0  0  0  0  0  0  0  0  0  0  0
   51.2511   22.5825   13.2508 C   0  0  0  0  0  0  0  0  0  0  0  0
   51.9512   22.4662   14.4657 C   0  0  0  0  0  0  0  0  0  0  0  0
   51.8562   23.4786   15.4461 C   0  0  0  0  0  0  0  0  0  0  0  0
   52.0644   28.5530   11.0706 H   0  0  0  0  0  0  0  0  0  0  0  0
   50.8846   25.3142   10.8371 H   0  0  0  0  0  0  0  0  0  0  0  0
   50.3074   25.6982    9.1843 H   0  0  0  0  0  0  0  0  0  0  0  0
   49.3516   27.8344    9.9177 H   0  0  0  0  0  0  0  0  0  0  0  0
   46.8418   26.3552   12.5465 H   0  0  0  0  0  0  0  0  0  0  0  0
   51.1292   28.1728   11.8177 H   0  0  0  0  0  0  0  0  0  0  0  0
   49.8857   27.2124   14.9634 H   0  0  0  0  0  0  0  0  0  0  0  0
   48.1776   27.0108   14.4635 H   0  0  0  0  0  0  0  0  0  0  0  0
   48.5816   25.7869   11.5126 H   0  0  0  0  0  0  0  0  0  0  0  0
   49.6603   23.4813   11.0841 H   0  0  0  0  0  0  0  0  0  0  0  0
   50.9840   25.3931   15.9694 H   0  0  0  0  0  0  0  0  0  0  0  0
   51.3242   21.8161   12.4899 H   0  0  0  0  0  0  0  0  0  0  0  0
   52.5692   21.5970   14.6484 H   0  0  0  0  0  0  0  0  0  0  0  0
   52.4007   23.3797   16.3763 H   0  0  0  0  0  0  0  0  0  0  0  0
  1  2  1  0
  2  3  2  0
  2  4  1  0
  5  4  1  0
  5  6  1  0
  6  7  2  0
  6  8  1  0
  5  9  1  0
  9 10  1  0
 10 11  2  0
 10 12  1  0
 12 13  1  0
 13 14  2  0
 14 15  1  0
 13 16  1  0
 16 17  2  0
 15 18  1  0
 16 18  1  0
 18 19  2  0
 19 20  1  0
 17 21  1  0
 20 21  2  0
  1 22  1  0
  4 23  1  1
  4 24  1  0
  5 25  1  6
  8 26  1  0
  9 27  1  0
 12 28  1  1
 12 29  1  0
 14 30  1  0
 15 31  1  0
 17 32  1  0
 19 33  1  0
 20 34  1  0
 21 35  1  0
M  END
