7UY4_SMI_A_302
     RDKit          3D

 24 26  0  0  0  0  0  0  0  0999 V2000
  -10.2604  -50.8929   26.5903 O   0  0  0  0  0  0  0  0  0  0  0  0
   -9.2839  -51.8204   26.3977 C   0  0  2  0  0  0  0  0  0  0  0  0
   -8.4685  -51.8900   27.6958 C   0  0  0  0  0  0  0  0  0  0  0  0
   -8.3284  -51.3666   25.3247 C   0  0  0  0  0  0  0  0  0  0  0  0
   -9.0558  -51.1428   24.0438 C   0  0  2  0  0  0  0  0  0  0  0  0
  -10.5346  -50.9290   24.1788 C   0  0  1  0  0  0  0  0  0  0  0  0
  -11.1680  -52.1320   23.7964 O   0  0  0  0  0  0  0  0  0  0  0  0
  -10.9874  -50.4856   25.5089 C   0  0  2  0  0  0  0  0  0  0  0  0
  -10.9256  -49.9961   23.2169 O   0  0  0  0  0  0  0  0  0  0  0  0
  -11.1007  -49.0961   25.6023 O   0  0  0  0  0  0  0  0  0  0  0  0
  -12.1955  -49.5573   23.5605 C   0  0  2  0  0  0  0  0  0  0  0  0
  -12.8470  -48.7437   22.4662 C   0  0  1  0  0  0  0  0  0  0  0  0
  -13.0481  -49.6213   21.3104 N   0  0  0  0  0  0  0  0  0  0  0  0
  -12.0699  -49.4001   20.2770 C   0  0  0  0  0  0  0  0  0  0  0  0
  -14.2331  -48.4065   22.9656 C   0  0  1  0  0  0  0  0  0  0  0  0
  -15.0642  -49.4996   22.9618 O   0  0  0  0  0  0  0  0  0  0  0  0
  -14.2396  -47.6992   24.3006 C   0  0  1  0  0  0  0  0  0  0  0  0
  -15.6028  -47.6881   24.7619 N   0  0  0  0  0  0  0  0  0  0  0  0
  -16.2760  -46.4169   24.6010 C   0  0  0  0  0  0  0  0  0  0  0  0
  -13.3975  -48.4189   25.3266 C   0  0  2  0  0  0  0  0  0  0  0  0
  -13.3636  -47.7103   26.5022 O   0  0  0  0  0  0  0  0  0  0  0  0
  -12.0190  -48.5918   24.7139 C   0  0  1  0  0  0  0  0  0  0  0  0
   -8.7917  -52.2214   23.1990 O   0  0  0  0  0  0  0  0  0  0  0  0
   -8.4683  -50.0242   23.4327 O   0  0  0  0  0  0  0  0  0  0  0  0
  2  1  1  1
  3  2  1  6
  4  2  1  6
  4  5  1  0
  5  6  1  0
  6  7  1  6
  8  1  1  1
  6  8  1  0
  6  9  1  0
  8 10  1  0
 11  9  1  6
 11 12  1  0
 12 13  1  6
 14 13  1  6
 12 15  1  0
 15 16  1  1
 15 17  1  0
 17 18  1  1
 19 18  1  1
 17 20  1  0
 20 21  1  1
 22 10  1  1
 11 22  1  0
 20 22  1  0
  5 23  1  6
  5 24  1  0
M  END
$$$$
