7WKL_CAQ_A_401
     RDKit          3D

  8  8  0  0  0  0  0  0  0  0999 V2000
   41.2966   17.5014   58.3713 C   0  0  0  0  0  0  0  0  0  0  0  0
   41.7148   16.4835   57.5323 C   0  0  0  0  0  0  0  0  0  0  0  0
   42.6931   16.7182   56.5754 C   0  0  0  0  0  0  0  0  0  0  0  0
   43.0838   15.6904   55.7620 O   0  0  0  0  0  0  0  0  0  0  0  0
   43.2438   17.9792   56.4709 C   0  0  0  0  0  0  0  0  0  0  0  0
   44.2358   18.2147   55.4998 O   0  0  0  0  0  0  0  0  0  0  0  0
   42.8247   19.0131   57.3171 C   0  0  0  0  0  0  0  0  0  0  0  0
   41.8515   18.7595   58.2612 C   0  0  0  0  0  0  0  0  0  0  0  0
  1  2  2  0
  2  3  1  0
  3  4  1  0
  3  5  2  0
  5  6  1  0
  5  7  1  0
  1  8  1  0
  7  8  2  0
M  END
$$$$
