7U0U_FK5_B_201
     RDKit          3D

126129  0  0  0  0  0  0  0  0999 V2000
  -29.4514  -12.5741  -21.2230 C   0  0  0  0  0  0  0  0  0  0  0  0
  -28.7253  -11.8732  -22.3399 C   0  0  2  0  0  0  0  0  0  0  0  0
  -29.4631  -10.6829  -22.9798 C   0  0  2  0  0  0  0  0  0  0  0  0
  -28.8058  -10.2724  -24.3253 C   0  0  1  0  0  0  0  0  0  0  0  0
  -27.3191  -10.6775  -24.4188 C   0  0  1  0  0  0  0  0  0  0  0  0
  -27.1089  -12.1916  -24.1642 C   0  0  1  0  0  0  0  0  0  0  0  0
  -29.0610  -13.7522  -24.0995 C   0  0  0  0  0  0  0  0  0  0  0  0
  -30.5551  -13.7239  -24.1142 C   0  0  0  0  0  0  0  0  0  0  0  0
  -31.4268  -13.7015  -25.3865 C   0  0  1  0  0  0  0  0  0  0  0  0
  -30.6489  -13.8625  -26.7417 C   0  0  1  0  0  0  0  0  0  0  0  0
  -30.5157  -15.3405  -27.1763 C   0  0  2  0  0  0  0  0  0  0  0  0
  -30.7726  -16.3612  -26.0593 C   0  0  1  0  0  0  0  0  0  0  0  0
  -32.1062  -16.0420  -25.3240 C   0  0  1  0  0  0  0  0  0  0  0  0
  -32.2256  -16.6010  -23.8748 C   0  0  2  0  0  0  0  0  0  0  0  0
  -31.6962  -18.0516  -23.6432 C   0  0  1  0  0  0  0  0  0  0  0  0
  -32.7667  -19.1833  -23.6328 C   0  0  2  0  0  0  0  0  0  0  0  0
  -32.2953  -20.3939  -22.7825 C   0  0  2  0  0  0  0  0  0  0  0  0
  -32.0092  -20.1463  -21.2954 C   0  0  0  0  0  0  0  0  0  0  0  0
  -32.4728  -19.0420  -20.6421 C   0  0  0  0  0  0  0  0  0  0  0  0
  -32.3147  -18.6865  -19.1735 C   0  0  2  0  0  0  0  0  0  0  0  0
  -30.9122  -18.9113  -18.6159 C   0  0  0  0  0  0  0  0  0  0  0  0
  -29.7036  -18.0832  -19.0161 C   0  0  2  0  0  0  0  0  0  0  0  0
  -30.0001  -16.6019  -19.3579 C   0  0  1  0  0  0  0  0  0  0  0  0
  -28.7548  -15.6874  -19.1567 C   0  0  2  0  0  0  0  0  0  0  0  0
  -29.1113  -14.1833  -19.3632 C   0  0  1  0  0  0  0  0  0  0  0  0
  -28.2679  -13.2884  -18.4585 C   0  0  0  0  0  0  0  0  0  0  0  0
  -27.8284  -12.0904  -18.9104 C   0  0  0  0  0  0  0  0  0  0  0  0
  -27.1162  -11.0471  -18.0722 C   0  0  1  0  0  0  0  0  0  0  0  0
  -26.7963  -11.6062  -16.6620 C   0  0  2  0  0  0  0  0  0  0  0  0
  -25.3938  -12.2476  -16.5755 C   0  0  2  0  0  0  0  0  0  0  0  0
  -24.2832  -11.2119  -16.9209 C   0  0  1  0  0  0  0  0  0  0  0  0
  -24.7704  -10.0809  -17.8567 C   0  0  2  0  0  0  0  0  0  0  0  0
  -25.8496  -10.5683  -18.8244 C   0  0  1  0  0  0  0  0  0  0  0  0
  -31.3075  -13.0714  -27.8953 C   0  0  2  0  0  0  0  0  0  0  0  0
  -33.0727  -19.6371  -25.0650 C   0  0  2  0  0  0  0  0  0  0  0  0
  -31.2319  -21.2276  -20.5815 C   0  0  1  0  0  0  0  0  0  0  0  0
  -33.4260  -19.3712  -18.3431 C   0  0  1  0  0  0  0  0  0  0  0  0
  -32.9199  -19.8684  -17.0138 C   0  0  0  0  0  0  0  0  0  0  0  0
  -31.9280  -20.7584  -16.9243 C   0  0  0  0  0  0  0  0  0  0  0  0
  -27.5577  -16.1304  -20.0250 C   0  0  2  0  0  0  0  0  0  0  0  0
  -27.9505  -13.7713  -17.0649 C   0  0  2  0  0  0  0  0  0  0  0  0
  -32.0523  -18.3194  -26.2123 C   0  0  1  0  0  0  0  0  0  0  0  0
  -33.8954  -17.4148  -22.4380 C   0  0  1  0  0  0  0  0  0  0  0  0
  -24.3450  -14.2788  -17.0664 C   0  0  1  0  0  0  0  0  0  0  0  0
  -28.2485  -12.7584  -23.4149 N   0  0  0  0  0  0  0  0  0  0  0  0
  -28.9622  -13.7937  -20.7362 O   0  0  0  0  0  0  0  0  0  0  0  0
  -30.4192  -12.0027  -20.6468 O   0  0  0  0  0  0  0  0  0  0  0  0
  -28.4684  -14.6308  -24.7818 O   0  0  0  0  0  0  0  0  0  0  0  0
  -31.1631  -13.6191  -23.0200 O   0  0  0  0  0  0  0  0  0  0  0  0
  -32.4791  -14.6639  -25.3165 O   0  0  0  0  0  0  0  0  0  0  0  0
  -32.0707  -12.4483  -25.3789 O   0  0  0  0  0  0  0  0  0  0  0  0
  -30.8772  -17.6553  -26.6405 O   0  0  0  0  0  0  0  0  0  0  0  0
  -33.5893  -16.5085  -23.4758 O   0  0  0  0  0  0  0  0  0  0  0  0
  -30.7245  -19.8385  -17.8405 O   0  0  0  0  0  0  0  0  0  0  0  0
  -30.4541  -16.5257  -20.6838 O   0  0  0  0  0  0  0  0  0  0  0  0
  -25.3030  -13.3316  -17.4900 O   0  0  0  0  0  0  0  0  0  0  0  0
  -23.7640  -10.6358  -15.7518 O   0  0  0  0  0  0  0  0  0  0  0  0
  -27.8300  -11.4489  -21.8319 H   0  0  0  0  0  0  0  0  0  0  0  0
  -29.4468   -9.8186  -22.2839 H   0  0  0  0  0  0  0  0  0  0  0  0
  -30.5256  -10.9456  -23.1629 H   0  0  0  0  0  0  0  0  0  0  0  0
  -29.3438  -10.7581  -25.1658 H   0  0  0  0  0  0  0  0  0  0  0  0
  -28.9031   -9.1743  -24.4677 H   0  0  0  0  0  0  0  0  0  0  0  0
  -26.9234  -10.4050  -25.4212 H   0  0  0  0  0  0  0  0  0  0  0  0
  -26.7515  -10.0880  -23.6669 H   0  0  0  0  0  0  0  0  0  0  0  0
  -26.9636  -12.7058  -25.1397 H   0  0  0  0  0  0  0  0  0  0  0  0
  -26.1797  -12.3355  -23.5724 H   0  0  0  0  0  0  0  0  0  0  0  0
  -29.6336  -13.4261  -26.6351 H   0  0  0  0  0  0  0  0  0  0  0  0
  -29.4955  -15.4870  -27.5910 H   0  0  0  0  0  0  0  0  0  0  0  0
  -31.2292  -15.5698  -27.9970 H   0  0  0  0  0  0  0  0  0  0  0  0
  -29.9629  -16.3235  -25.3055 H   0  0  0  0  0  0  0  0  0  0  0  0
  -32.9025  -16.5470  -25.9155 H   0  0  0  0  0  0  0  0  0  0  0  0
  -31.5548  -15.9743  -23.2492 H   0  0  0  0  0  0  0  0  0  0  0  0
  -30.8747  -18.3210  -24.3250 H   0  0  0  0  0  0  0  0  0  0  0  0
  -31.1786  -18.0368  -22.6636 H   0  0  0  0  0  0  0  0  0  0  0  0
  -33.7307  -18.8406  -23.2033 H   0  0  0  0  0  0  0  0  0  0  0  0
  -31.3669  -20.7980  -23.2497 H   0  0  0  0  0  0  0  0  0  0  0  0
  -33.0632  -21.1971  -22.8414 H   0  0  0  0  0  0  0  0  0  0  0  0
  -33.0775  -18.3259  -21.1851 H   0  0  0  0  0  0  0  0  0  0  0  0
  -32.5254  -17.5970  -19.1106 H   0  0  0  0  0  0  0  0  0  0  0  0
  -29.2023  -18.5761  -19.8740 H   0  0  0  0  0  0  0  0  0  0  0  0
  -28.9934  -18.1105  -18.1571 H   0  0  0  0  0  0  0  0  0  0  0  0
  -30.7891  -16.2443  -18.6580 H   0  0  0  0  0  0  0  0  0  0  0  0
  -28.4458  -15.8138  -18.0929 H   0  0  0  0  0  0  0  0  0  0  0  0
  -30.1763  -14.0385  -19.0787 H   0  0  0  0  0  0  0  0  0  0  0  0
  -28.0965  -11.7873  -19.9194 H   0  0  0  0  0  0  0  0  0  0  0  0
  -27.7650  -10.1611  -17.9119 H   0  0  0  0  0  0  0  0  0  0  0  0
  -27.5766  -12.3283  -16.3424 H   0  0  0  0  0  0  0  0  0  0  0  0
  -26.8368  -10.7726  -15.9258 H   0  0  0  0  0  0  0  0  0  0  0  0
  -25.2323  -12.5824  -15.5195 H   0  0  0  0  0  0  0  0  0  0  0  0
  -23.4540  -11.7448  -17.4498 H   0  0  0  0  0  0  0  0  0  0  0  0
  -23.9063   -9.6796  -18.4306 H   0  0  0  0  0  0  0  0  0  0  0  0
  -25.1856   -9.2447  -17.2524 H   0  0  0  0  0  0  0  0  0  0  0  0
  -25.4140  -11.3885  -19.4408 H   0  0  0  0  0  0  0  0  0  0  0  0
  -26.1228   -9.7464  -19.5178 H   0  0  0  0  0  0  0  0  0  0  0  0
  -31.6815  -12.0838  -27.5422 H   0  0  0  0  0  0  0  0  0  0  0  0
  -32.1529  -13.6466  -28.3312 H   0  0  0  0  0  0  0  0  0  0  0  0
  -30.5642  -12.8648  -28.6991 H   0  0  0  0  0  0  0  0  0  0  0  0
  -32.7028  -20.6724  -25.2278 H   0  0  0  0  0  0  0  0  0  0  0  0
  -32.5861  -18.9681  -25.8055 H   0  0  0  0  0  0  0  0  0  0  0  0
  -34.1683  -19.6387  -25.2429 H   0  0  0  0  0  0  0  0  0  0  0  0
  -31.6754  -22.2265  -20.7759 H   0  0  0  0  0  0  0  0  0  0  0  0
  -30.1806  -21.2673  -20.9451 H   0  0  0  0  0  0  0  0  0  0  0  0
  -31.2008  -21.0158  -19.4947 H   0  0  0  0  0  0  0  0  0  0  0  0
  -34.2551  -18.6515  -18.1599 H   0  0  0  0  0  0  0  0  0  0  0  0
  -33.8533  -20.2241  -18.9055 H   0  0  0  0  0  0  0  0  0  0  0  0
  -33.3514  -19.4652  -16.1022 H   0  0  0  0  0  0  0  0  0  0  0  0
  -31.5750  -21.0863  -15.9506 H   0  0  0  0  0  0  0  0  0  0  0  0
  -31.4554  -21.1642  -17.8177 H   0  0  0  0  0  0  0  0  0  0  0  0
  -26.9062  -15.2690  -20.2690 H   0  0  0  0  0  0  0  0  0  0  0  0
  -27.8987  -16.6055  -20.9696 H   0  0  0  0  0  0  0  0  0  0  0  0
  -26.9278  -16.8587  -19.4712 H   0  0  0  0  0  0  0  0  0  0  0  0
  -28.0109  -14.8768  -16.9965 H   0  0  0  0  0  0  0  0  0  0  0  0
  -28.6731  -13.3393  -16.3376 H   0  0  0  0  0  0  0  0  0  0  0  0
  -26.9180  -13.4744  -16.7889 H   0  0  0  0  0  0  0  0  0  0  0  0
  -32.8806  -18.1970  -26.9433 H   0  0  0  0  0  0  0  0  0  0  0  0
  -31.8739  -19.3990  -26.0088 H   0  0  0  0  0  0  0  0  0  0  0  0
  -32.3869  -17.8567  -25.2609 H   0  0  0  0  0  0  0  0  0  0  0  0
  -34.9628  -17.7027  -22.5287 H   0  0  0  0  0  0  0  0  0  0  0  0
  -33.2906  -18.3453  -22.5176 H   0  0  0  0  0  0  0  0  0  0  0  0
  -33.7634  -16.9372  -21.4433 H   0  0  0  0  0  0  0  0  0  0  0  0
  -24.8249  -15.1620  -16.5939 H   0  0  0  0  0  0  0  0  0  0  0  0
  -23.7848  -14.6368  -17.9535 H   0  0  0  0  0  0  0  0  0  0  0  0
  -23.6169  -13.8149  -16.3661 H   0  0  0  0  0  0  0  0  0  0  0  0
  -31.4830  -11.7923  -24.9214 H   0  0  0  0  0  0  0  0  0  0  0  0
  -30.7141  -15.5810  -20.8512 H   0  0  0  0  0  0  0  0  0  0  0  0
  -22.8115  -10.9099  -15.6957 H   0  0  0  0  0  0  0  0  0  0  0  0
  1  2  1  0
  2  3  1  0
  3  4  1  0
  4  5  1  0
  5  6  1  0
  7  8  1  0
  8  9  1  0
  9 10  1  0
 10 11  1  0
 11 12  1  0
 12 13  1  0
 13 14  1  0
 14 15  1  0
 15 16  1  0
 16 17  1  0
 17 18  1  0
 18 19  2  0
 19 20  1  0
 20 21  1  0
 21 22  1  0
 22 23  1  0
 23 24  1  0
 24 25  1  0
 25 26  1  0
 26 27  2  0
 28 27  1  0
 28 29  1  0
 29 30  1  0
 30 31  1  0
 31 32  1  0
 28 33  1  0
 32 33  1  0
 10 34  1  0
 16 35  1  0
 18 36  1  0
 20 37  1  0
 37 38  1  0
 38 39  2  0
 24 40  1  0
 26 41  1  0
  2 45  1  0
  6 45  1  0
  7 45  1  0
  1 46  1  0
 25 46  1  0
  1 47  2  0
  7 48  2  0
  8 49  2  0
  9 50  1  0
 13 50  1  0
  9 51  1  6
 12 52  1  0
 42 52  1  0
 14 53  1  0
 43 53  1  0
 21 54  2  0
 23 55  1  0
 30 56  1  0
 44 56  1  0
 31 57  1  0
  2 58  1  1
  3 59  1  1
  3 60  1  0
  4 61  1  6
  4 62  1  0
  5 63  1  6
  5 64  1  0
  6 65  1  6
  6 66  1  0
 10 67  1  1
 11 68  1  6
 11 69  1  0
 12 70  1  1
 13 71  1  6
 14 72  1  1
 15 73  1  6
 15 74  1  0
 16 75  1  1
 17 76  1  6
 17 77  1  0
 19 78  1  0
 20 79  1  6
 22 80  1  6
 22 81  1  0
 23 82  1  1
 24 83  1  1
 25 84  1  1
 27 85  1  0
 28 86  1  1
 29 87  1  1
 29 88  1  0
 30 89  1  1
 31 90  1  6
 32 91  1  6
 32 92  1  0
 33 93  1  6
 33 94  1  0
 34 95  1  1
 34 96  1  0
 34 97  1  0
 35 98  1  1
 35 99  1  0
 35100  1  0
 36101  1  1
 36102  1  0
 36103  1  0
 37104  1  1
 37105  1  0
 38106  1  0
 39107  1  0
 39108  1  0
 40109  1  6
 40110  1  0
 40111  1  0
 41112  1  6
 41113  1  0
 41114  1  0
 42115  1  6
 42116  1  0
 42117  1  0
 43118  1  6
 43119  1  0
 43120  1  0
 44121  1  1
 44122  1  0
 44123  1  0
 51124  1  0
 55125  1  0
 57126  1  0
M  END
