7OZ9_NGK_BBB_602
     RDKit          3D

 19 19  0  0  0  0  0  0  0  0999 V2000
   38.1103   38.9457   32.7274 C   0  0  1  0  0  0  0  0  0  0  0  0
   37.4977   40.2762   33.1672 C   0  0  1  0  0  0  0  0  0  0  0  0
   36.2046   40.4721   32.4183 C   0  0  2  0  0  0  0  0  0  0  0  0
   36.1591   39.6534   31.1397 C   0  0  2  0  0  0  0  0  0  0  0  0
   36.3399   38.2001   31.4183 C   0  0  1  0  0  0  0  0  0  0  0  0
   36.9707   37.4172   30.2927 C   0  0  0  0  0  0  0  0  0  0  0  0
   36.6097   41.2965   35.2154 C   0  0  0  0  0  0  0  0  0  0  0  0
   35.7005   42.1635   34.4199 C   0  0  0  0  0  0  0  0  0  0  0  0
   37.3031   40.2139   34.6031 N   0  0  0  0  0  0  0  0  0  0  0  0
   38.9211   38.4474   33.7735 O   0  0  0  0  0  0  0  0  0  0  0  0
   35.8911   41.7838   32.1672 O   0  0  0  0  0  0  0  0  0  0  0  0
   36.9997   40.1560   30.1654 O   0  0  0  0  0  0  0  0  0  0  0  0
   37.0948   38.0317   32.5733 O   0  0  0  0  0  0  0  0  0  0  0  0
   37.2654   36.1122   30.5909 O   0  0  0  0  0  0  0  0  0  0  0  0
   36.7262   41.5739   36.4408 O   0  0  0  0  0  0  0  0  0  0  0  0
   36.1807   40.7422   28.8162 S   0  0  2  0  0  6  0  0  0  0  0  0
   34.8287   40.1089   28.6800 O   0  0  0  0  0  0  0  0  0  0  0  0
   37.0280   40.4351   27.4042 O   0  0  0  0  0  0  0  0  0  0  0  0
   36.0602   42.2478   28.9247 O   0  0  0  0  0  0  0  0  0  0  0  0
  1  2  1  0
  2  3  1  0
  3  4  1  0
  4  5  1  0
  5  6  1  0
  8  7  1  1
  2  9  1  1
  7  9  1  0
  1 10  1  1
  3 11  1  6
  4 12  1  6
  1 13  1  0
  5 13  1  1
  6 14  1  6
  7 15  2  0
 12 16  1  0
 16 17  2  0
 16 18  1  6
 16 19  2  0
M  END
$$$$
