7V43_C4O_A_501
     RDKit          3D

 15 15  0  0  0  0  0  0  0  0999 V2000
  -41.7486   23.2249   -5.9773 C   0  0  2  0  0  0  0  0  0  0  0  0
  -42.4208   22.5521   -7.1372 C   0  0  0  0  0  0  0  0  0  0  0  0
  -41.6702   22.1488   -8.2531 C   0  0  0  0  0  0  0  0  0  0  0  0
  -42.2911   21.4883   -9.3181 C   0  0  0  0  0  0  0  0  0  0  0  0
  -43.6622   21.2149   -9.2704 C   0  0  0  0  0  0  0  0  0  0  0  0
  -44.4391   20.3847  -10.6060 Cl  0  0  0  0  0  0  0  0  0  0  0  0
  -44.4116   21.5985   -8.1531 C   0  0  0  0  0  0  0  0  0  0  0  0
  -43.7930   22.2591   -7.0869 C   0  0  0  0  0  0  0  0  0  0  0  0
  -40.8806   23.8261   -6.3225 H   0  0  0  0  0  0  0  0  0  0  0  0
  -41.3942   22.4560   -5.2595 H   0  0  0  0  0  0  0  0  0  0  0  0
  -42.4542   23.9078   -5.4579 H   0  0  0  0  0  0  0  0  0  0  0  0
  -40.6062   22.3458   -8.2989 H   0  0  0  0  0  0  0  0  0  0  0  0
  -41.7055   21.1866  -10.1771 H   0  0  0  0  0  0  0  0  0  0  0  0
  -45.4714   21.3823   -8.1083 H   0  0  0  0  0  0  0  0  0  0  0  0
  -44.3832   22.5421   -6.2240 H   0  0  0  0  0  0  0  0  0  0  0  0
  1  2  1  0
  2  3  2  0
  3  4  1  0
  4  5  2  0
  5  6  1  0
  5  7  1  0
  7  8  2  0
  2  8  1  0
  1  9  1  6
  1 10  1  0
  1 11  1  0
  3 12  1  0
  4 13  1  0
  7 14  1  0
  8 15  1  0
M  END
