7RC3_SAH_A_405
     RDKit          3D

 26 28  0  0  0  0  0  0  0  0999 V2000
  -41.6261   22.7522   10.3426 N   0  0  0  0  0  0  0  0  0  0  0  0
  -42.6008   22.1970   11.2840 C   0  0  1  0  0  0  0  0  0  0  0  0
  -44.0406   22.3077   10.7594 C   0  0  0  0  0  0  0  0  0  0  0  0
  -44.6655   21.0079   10.2477 C   0  0  0  0  0  0  0  0  0  0  0  0
  -45.6110   20.1693   11.5544 S   0  0  0  0  0  0  0  0  0  0  0  0
  -42.2552   20.7502   11.5916 C   0  0  0  0  0  0  0  0  0  0  0  0
  -42.6328   19.8543   10.8248 O   0  0  0  0  0  0  0  0  0  0  0  0
  -41.6168   20.4539   12.6181 O   0  0  0  0  0  0  0  0  0  0  0  0
  -47.2166   19.9918   10.7096 C   0  0  0  0  0  0  0  0  0  0  0  0
  -47.1396   19.7077    9.2098 C   0  0  1  0  0  0  0  0  0  0  0  0
  -47.6371   18.4043    8.9587 O   0  0  0  0  0  0  0  0  0  0  0  0
  -48.0021   20.6070    8.3273 C   0  0  1  0  0  0  0  0  0  0  0  0
  -47.1679   21.2617    7.3839 O   0  0  0  0  0  0  0  0  0  0  0  0
  -48.9722   19.6521    7.6249 C   0  0  1  0  0  0  0  0  0  0  0  0
  -49.3091   19.9633    6.2952 O   0  0  0  0  0  0  0  0  0  0  0  0
  -48.2165   18.3486    7.6527 C   0  0  2  0  0  0  0  0  0  0  0  0
  -48.9927   17.1159    7.7099 N   0  0  0  0  0  0  0  0  0  0  0  0
  -50.2024   16.9202    8.3287 C   0  0  0  0  0  0  0  0  0  0  0  0
  -50.5187   15.6059    8.2374 N   0  0  0  0  0  0  0  0  0  0  0  0
  -49.5179   14.9579    7.5915 C   0  0  0  0  0  0  0  0  0  0  0  0
  -49.3169   13.6236    7.2538 C   0  0  0  0  0  0  0  0  0  0  0  0
  -50.2147   12.6929    7.5605 N   0  0  0  0  0  0  0  0  0  0  0  0
  -48.1688   13.2888    6.5853 N   0  0  0  0  0  0  0  0  0  0  0  0
  -47.2245   14.2368    6.2506 C   0  0  0  0  0  0  0  0  0  0  0  0
  -47.4223   15.5619    6.5989 N   0  0  0  0  0  0  0  0  0  0  0  0
  -48.5489   15.9000    7.2600 C   0  0  0  0  0  0  0  0  0  0  0  0
  2  1  1  6
  2  3  1  0
  3  4  1  0
  4  5  1  0
  2  6  1  0
  6  7  2  0
  6  8  1  0
  5  9  1  0
 10  9  1  1
 10 11  1  0
 10 12  1  0
 12 13  1  6
 12 14  1  0
 14 15  1  6
 11 16  1  0
 14 16  1  0
 16 17  1  1
 17 18  1  0
 18 19  2  0
 19 20  1  0
 20 21  2  0
 21 22  1  0
 21 23  1  0
 23 24  2  0
 24 25  1  0
 17 26  1  0
 20 26  1  0
 25 26  2  0
M  END
