8A1H_DLZ_A_602
     RDKit          3D

 41 42  0  0  0  0  0  0  0  0999 V2000
  -66.7184   37.9412   -8.6458 C   0  0  0  0  0  0  0  0  0  0  0  0
  -67.8780   38.6817   -7.9269 C   0  0  0  0  0  0  0  0  0  0  0  0
  -69.1691   38.3862   -8.2480 C   0  0  0  0  0  0  0  0  0  0  0  0
  -69.5708   37.4042   -9.3210 C   0  0  0  0  0  0  0  0  0  0  0  0
  -70.1734   39.0393   -7.5475 N   0  0  0  0  0  0  0  0  0  0  0  0
  -69.7980   39.8791   -6.6128 C   0  0  0  0  0  0  0  0  0  0  0  0
  -70.9155   40.5550   -5.8212 C   0  0  0  0  0  0  0  0  0  0  0  0
  -72.0540   40.1962   -6.0036 O   0  0  0  0  0  0  0  0  0  0  0  0
  -70.4745   41.4383   -4.9313 N   0  0  0  0  0  4  0  0  0  0  0  0
  -69.1627   41.8724   -4.6995 C   0  0  0  0  0  0  0  0  0  0  0  0
  -68.8873   42.7429   -3.9332 O   0  0  0  0  0  0  0  0  0  0  0  0
  -68.1290   41.1803   -5.3724 N   0  0  0  0  0  0  0  0  0  0  0  0
  -68.5153   40.2941   -6.2450 C   0  0  0  0  0  0  0  0  0  0  0  0
  -67.5073   39.5795   -6.9904 N   0  0  0  0  0  4  0  0  0  0  0  0
  -66.1411   39.8046   -6.4777 C   0  0  0  0  0  0  0  0  0  0  0  0
  -65.1967   38.8638   -7.3352 C   0  0  1  0  0  0  0  0  0  0  0  0
  -63.9736   38.5044   -6.6401 O   0  0  0  0  0  0  0  0  0  0  0  0
  -65.8173   37.4877   -7.7729 C   0  0  1  0  0  0  0  0  0  0  0  0
  -66.4941   37.7064   -9.0334 O   0  0  0  0  0  0  0  0  0  0  0  0
  -64.7452   36.4381   -8.0207 C   0  0  1  0  0  0  0  0  0  0  0  0
  -65.0935   35.1415   -7.4665 O   0  0  0  0  0  0  0  0  0  0  0  0
  -64.4876   36.3289   -9.5220 C   0  0  0  0  0  0  0  0  0  0  0  0
  -63.7154   35.1774   -9.8969 O   0  0  0  0  0  0  0  0  0  0  0  0
  -67.1222   37.2577   -9.3632 H   0  0  0  0  0  0  0  0  0  0  0  0
  -66.0946   38.6538   -9.1437 H   0  0  0  0  0  0  0  0  0  0  0  0
  -66.1391   37.4017   -7.9258 H   0  0  0  0  0  0  0  0  0  0  0  0
  -68.6934   36.9854   -9.7678 H   0  0  0  0  0  0  0  0  0  0  0  0
  -70.1580   36.6221   -8.8870 H   0  0  0  0  0  0  0  0  0  0  0  0
  -70.1458   37.9088  -10.0691 H   0  0  0  0  0  0  0  0  0  0  0  0
  -71.1639   41.8427   -4.3565 H   0  0  0  0  0  0  0  0  0  0  0  0
  -65.8601   40.8293   -6.6039 H   0  0  0  0  0  0  0  0  0  0  0  0
  -66.0717   39.5849   -5.4328 H   0  0  0  0  0  0  0  0  0  0  0  0
  -65.0247   39.4777   -8.1945 H   0  0  0  0  0  0  0  0  0  0  0  0
  -64.1883   37.9504   -5.8733 H   0  0  0  0  0  0  0  0  0  0  0  0
  -66.4672   37.1418   -6.9964 H   0  0  0  0  0  0  0  0  0  0  0  0
  -65.8553   38.0175   -9.6937 H   0  0  0  0  0  0  0  0  0  0  0  0
  -63.8548   36.7525   -7.5175 H   0  0  0  0  0  0  0  0  0  0  0  0
  -65.8999   34.8131   -7.8942 H   0  0  0  0  0  0  0  0  0  0  0  0
  -65.4316   36.2795  -10.0233 H   0  0  0  0  0  0  0  0  0  0  0  0
  -63.9183   37.1902   -9.8033 H   0  0  0  0  0  0  0  0  0  0  0  0
  -64.1995   34.3716   -9.6575 H   0  0  0  0  0  0  0  0  0  0  0  0
  1  2  1  0
  2  3  4  0
  3  4  1  0
  3  5  4  0
  5  6  4  0
  6  7  4  0
  7  8  2  0
  7  9  4  0
  9 10  4  0
 10 11  2  0
 10 12  4  0
  6 13  1  0
 12 13  4  0
  2 14  4  0
 13 14  4  0
 14 15  1  0
 15 16  1  0
 16 17  1  0
 16 18  1  0
 18 19  1  0
 18 20  1  0
 20 21  1  0
 20 22  1  0
 22 23  1  0
  1 24  1  0
  1 25  1  0
  1 26  1  0
  4 27  1  0
  4 28  1  0
  4 29  1  0
  9 30  1  0
 15 31  1  0
 15 32  1  0
 16 33  1  1
 17 34  1  0
 18 35  1  6
 19 36  1  0
 20 37  1  6
 21 38  1  0
 22 39  1  0
 22 40  1  0
 23 41  1  0
M  CHG  2   9   1  14   1
M  END
