1HNN_SKF_A_3001
     RDKit          3D

 14 15  0  0  0  0  0  0  0  0999 V2000
   28.3480   46.0370   16.7830 C   0  0  0  0  0  0  0  0  0  0  0  0
   27.8990   45.5320   15.5700 C   0  0  0  0  0  0  0  0  0  0  0  0
   27.8220   44.1470   15.3850 C   0  0  0  0  0  0  0  0  0  0  0  0
   28.1930   43.2860   16.4100 C   0  0  0  0  0  0  0  0  0  0  0  0
   27.2610   43.4900   13.8470 S   0  0  0  0  0  0  0  0  0  0  0  0
   28.6420   43.7900   17.6160 C   0  0  0  0  0  0  0  0  0  0  0  0
   28.7200   45.1740   17.8070 C   0  0  0  0  0  0  0  0  0  0  0  0
   27.4850   44.4300   12.7700 O   0  0  0  0  0  0  0  0  0  0  0  0
   25.8660   43.1330   13.8730 O   0  0  0  0  0  0  0  0  0  0  0  0
   28.1050   42.1870   13.5730 N   0  0  0  0  0  0  0  0  0  0  0  0
   28.9650   42.8430   18.7440 C   0  0  0  0  0  0  0  0  0  0  0  0
   29.2110   44.8480   20.1940 C   0  0  0  0  0  0  0  0  0  0  0  0
   29.4880   45.7050   18.9780 C   0  0  0  0  0  0  0  0  0  0  0  0
   29.7000   43.4830   19.8600 N   0  0  0  0  0  0  0  0  0  0  0  0
  1  2  2  0
  2  3  1  0
  3  4  2  0
  3  5  1  0
  4  6  1  0
  1  7  1  0
  6  7  2  0
  5  8  2  0
  5  9  2  0
  5 10  1  0
  6 11  1  0
  7 13  1  0
 12 13  1  0
 11 14  1  0
 12 14  1  0
M  END
$$$$
1HNN_SKF_B_3002
     RDKit          3D

 14 15  0  0  0  0  0  0  0  0999 V2000
   11.0740   20.2090   20.9390 C   0  0  0  0  0  0  0  0  0  0  0  0
   11.2030   20.8950   22.1400 C   0  0  0  0  0  0  0  0  0  0  0  0
   12.3470   21.6360   22.3850 C   0  0  0  0  0  0  0  0  0  0  0  0
   13.3560   21.6940   21.4420 C   0  0  0  0  0  0  0  0  0  0  0  0
   12.5130   22.5000   23.9050 S   0  0  0  0  0  0  0  0  0  0  0  0
   13.2330   21.0100   20.2430 C   0  0  0  0  0  0  0  0  0  0  0  0
   12.0840   20.2630   19.9880 C   0  0  0  0  0  0  0  0  0  0  0  0
   11.6950   21.9000   24.9320 O   0  0  0  0  0  0  0  0  0  0  0  0
   12.1680   23.8930   23.7840 O   0  0  0  0  0  0  0  0  0  0  0  0
   14.0260   22.3940   24.3250 N   0  0  0  0  0  0  0  0  0  0  0  0
   14.2960   21.1600   19.1740 C   0  0  0  0  0  0  0  0  0  0  0  0
   12.7580   19.9720   17.6180 C   0  0  0  0  0  0  0  0  0  0  0  0
   12.0540   19.3320   18.8020 C   0  0  0  0  0  0  0  0  0  0  0  0
   14.1610   20.2040   18.0480 N   0  0  0  0  0  0  0  0  0  0  0  0
  1  2  2  0
  2  3  1  0
  3  4  2  0
  3  5  1  0
  4  6  1  0
  1  7  1  0
  6  7  2  0
  5  8  2  0
  5  9  2  0
  5 10  1  0
  6 11  1  0
  7 13  1  0
 12 13  1  0
 11 14  1  0
 12 14  1  0
M  END
$$$$
