8AY3_OE3_A_501
     RDKit          3D

 25 27  0  0  0  0  0  0  0  0999 V2000
  -11.8937   17.5474    3.4141 C   0  0  0  0  0  0  0  0  0  0  0  0
  -11.7838   13.7469    4.9823 N   0  0  0  0  0  0  0  0  0  0  0  0
  -11.2501   15.2545    3.2648 C   0  0  0  0  0  0  0  0  0  0  0  0
  -11.8277   14.9900    4.4881 C   0  0  0  0  0  0  0  0  0  0  0  0
  -12.4326   16.0437    5.1441 C   0  0  0  0  0  0  0  0  0  0  0  0
  -12.4792   17.3157    4.6363 C   0  0  0  0  0  0  0  0  0  0  0  0
  -13.0295   15.8298    6.3732 C   0  0  0  0  0  0  0  0  0  0  0  0
  -11.1502   12.6258    4.3246 C   0  0  0  0  0  0  0  0  0  0  0  0
  -11.8878   18.9024    2.7677 C   0  0  0  0  0  0  0  0  0  0  0  0
  -12.4143   23.5555    6.1957 C   0  0  0  0  0  0  0  0  0  0  0  0
  -13.6889   16.9373    7.1075 C   0  0  0  0  0  0  0  0  0  0  0  0
  -12.0720   22.4863    4.0517 C   0  0  0  0  0  0  0  0  0  0  0  0
  -12.8209   22.6772    5.1948 C   0  0  0  0  0  0  0  0  0  0  0  0
  -11.2315   24.2455    6.0278 C   0  0  0  0  0  0  0  0  0  0  0  0
  -10.4577   24.0712    4.8848 C   0  0  0  0  0  0  0  0  0  0  0  0
  -10.9107   23.1805    3.9148 C   0  0  0  0  0  0  0  0  0  0  0  0
   -9.6417   12.8096    4.5342 C   0  0  0  0  0  0  0  0  0  0  0  0
  -11.2786   16.5224    2.7243 C   0  0  0  0  0  0  0  0  0  0  0  0
  -12.9907   14.5509    6.8929 C   0  0  0  0  0  0  0  0  0  0  0  0
  -12.3682   13.5440    6.1820 C   0  0  0  0  0  0  0  0  0  0  0  0
  -12.7318   19.7853    3.5516 N   0  0  0  0  0  0  0  0  0  0  0  0
  -11.6821   21.3804    1.6893 O   0  0  0  0  0  0  0  0  0  0  0  0
  -14.0125   21.7813    2.3625 O   0  0  0  0  0  0  0  0  0  0  0  0
  -12.3589   12.3848    6.7020 O   0  0  0  0  0  0  0  0  0  0  0  0
  -12.6589   21.3525    2.8280 S   0  0  2  0  0  0  0  0  0  0  0  0
  2  4  1  0
  3  4  2  0
  4  5  1  0
  5  6  2  0
  1  6  1  0
  5  7  1  0
  2  8  1  0
  1  9  1  0
  7 11  1  0
 10 13  2  0
 12 13  1  0
 10 14  1  0
 14 15  2  0
 12 16  2  0
 15 16  1  0
  8 17  1  0
  3 18  1  0
  1 18  2  0
  7 19  2  0
  2 20  1  0
 19 20  1  0
  9 21  1  0
 20 24  2  0
 25 21  1  1
 23 25  2  0
 12 25  1  0
 22 25  2  0
M  END
$$$$
