1GPK_HUP_A_1540
     RDKit          3D

 18 20  0  0  0  0  0  0  0  0999 V2000
   -5.3177   81.4130   59.5240 C   0  0  0  0  0  0  0  0  0  0  0  0
   -5.1692   80.6440   60.4952 O   0  0  0  0  0  0  0  0  0  0  0  0
   -4.6878   81.1527   58.3690 N   0  0  0  0  0  0  0  0  0  0  0  0
   -6.1408   82.5132   59.6974 C   0  0  0  0  0  0  0  0  0  0  0  0
   -6.2852   83.3471   58.6015 C   0  0  0  0  0  0  0  0  0  0  0  0
   -5.6290   83.0676   57.4131 C   0  0  0  0  0  0  0  0  0  0  0  0
   -4.8209   81.9561   57.2981 C   0  0  0  0  0  0  0  0  0  0  0  0
   -4.0888   81.5873   56.0725 C   0  0  0  0  0  0  0  0  0  0  0  0
   -4.3911   82.4648   54.9032 C   0  0  1  0  0  0  0  0  0  0  0  0
   -5.6474   81.9463   54.2574 C   0  0  0  0  0  0  0  0  0  0  0  0
   -2.7780   84.6620   54.1105 C   0  0  0  0  0  0  0  0  0  0  0  0
   -3.8549   84.8540   55.0881 C   0  0  0  0  0  0  0  0  0  0  0  0
   -4.6346   83.8513   55.4012 C   0  0  0  0  0  0  0  0  0  0  0  0
   -5.8430   84.0176   56.2916 C   0  0  2  0  0  0  0  0  0  0  0  0
   -6.0170   85.3737   56.7192 N   0  0  0  0  0  0  0  0  0  0  0  0
   -7.0236   83.6363   55.4443 C   0  0  0  0  0  0  0  0  0  0  0  0
   -6.8241   82.4204   54.6344 C   0  0  0  0  0  0  0  0  0  0  0  0
   -8.0308   81.6458   54.1926 C   0  0  0  0  0  0  0  0  0  0  0  0
  1  2  2  0
  1  3  1  0
  1  4  1  0
  4  5  2  0
  5  6  1  0
  3  7  1  0
  6  7  2  0
  7  8  1  0
  9  8  1  1
  9 10  1  0
 11 12  1  0
  9 13  1  0
 12 13  2  0
  6 14  1  0
 13 14  1  0
 14 15  1  1
 14 16  1  0
 10 17  2  0
 16 17  1  0
 17 18  1  0
M  END
$$$$
