1GPK_HUP_A_1540
     RDKit          3D

 18 20  0  0  0  0  0  0  0  0999 V2000
   29.0038   57.4796   69.7595 C   0  0  0  0  0  0  0  0  0  0  0  0
   29.5601   56.5743   69.1055 O   0  0  0  0  0  0  0  0  0  0  0  0
   28.7247   58.6503   69.1677 N   0  0  0  0  0  0  0  0  0  0  0  0
   28.7001   57.2188   71.0853 C   0  0  0  0  0  0  0  0  0  0  0  0
   28.0834   58.2430   71.7838 C   0  0  0  0  0  0  0  0  0  0  0  0
   27.8001   59.4485   71.1612 C   0  0  0  0  0  0  0  0  0  0  0  0
   28.1258   59.6520   69.8368 C   0  0  0  0  0  0  0  0  0  0  0  0
   27.8599   60.9017   69.1008 C   0  0  0  0  0  0  0  0  0  0  0  0
   27.0860   61.9094   69.8848 C   0  0  1  0  0  0  0  0  0  0  0  0
   25.6266   61.5691   69.7487 C   0  0  0  0  0  0  0  0  0  0  0  0
   28.5891   63.9273   71.2097 C   0  0  0  0  0  0  0  0  0  0  0  0
   28.0847   62.7697   71.9566 C   0  0  0  0  0  0  0  0  0  0  0  0
   27.4814   61.7987   71.3204 C   0  0  0  0  0  0  0  0  0  0  0  0
   27.1374   60.4889   71.9886 C   0  0  2  0  0  0  0  0  0  0  0  0
   27.5367   60.4624   73.3641 N   0  0  0  0  0  0  0  0  0  0  0  0
   25.6395   60.3884   71.9315 C   0  0  0  0  0  0  0  0  0  0  0  0
   25.0530   60.7690   70.6333 C   0  0  0  0  0  0  0  0  0  0  0  0
   23.7057   60.2206   70.2654 C   0  0  0  0  0  0  0  0  0  0  0  0
  1  2  2  0
  1  3  1  0
  1  4  1  0
  4  5  2  0
  5  6  1  0
  3  7  1  0
  6  7  2  0
  7  8  1  0
  9  8  1  6
  9 10  1  0
 11 12  1  0
  9 13  1  0
 12 13  2  0
  6 14  1  0
 13 14  1  0
 14 15  1  1
 14 16  1  0
 10 17  2  0
 16 17  1  0
 17 18  1  0
M  END
$$$$
