1GPK_HUP_A_1540
     RDKit          3D

 18 20  0  0  0  0  0  0  0  0999 V2000
   -9.5670   82.5389   56.9330 C   0  0  0  0  0  0  0  0  0  0  0  0
  -10.8106   82.6396   56.9331 O   0  0  0  0  0  0  0  0  0  0  0  0
   -8.9338   82.1368   55.8213 N   0  0  0  0  0  0  0  0  0  0  0  0
   -8.8982   82.8543   58.1040 C   0  0  0  0  0  0  0  0  0  0  0  0
   -7.5193   82.7326   58.0720 C   0  0  0  0  0  0  0  0  0  0  0  0
   -6.8762   82.3160   56.9169 C   0  0  0  0  0  0  0  0  0  0  0  0
   -7.5946   82.0150   55.7790 C   0  0  0  0  0  0  0  0  0  0  0  0
   -6.9895   81.5660   54.5117 C   0  0  0  0  0  0  0  0  0  0  0  0
   -5.4967   81.5771   54.5199 C   0  0  1  0  0  0  0  0  0  0  0  0
   -5.0497   82.9751   54.1883 C   0  0  0  0  0  0  0  0  0  0  0  0
   -3.9973   79.2291   55.0473 C   0  0  0  0  0  0  0  0  0  0  0  0
   -4.3439   80.1403   56.1436 C   0  0  0  0  0  0  0  0  0  0  0  0
   -5.0274   81.2274   55.8936 C   0  0  0  0  0  0  0  0  0  0  0  0
   -5.3956   82.2146   56.9754 C   0  0  2  0  0  0  0  0  0  0  0  0
   -4.9022   81.8174   58.2604 N   0  0  0  0  0  0  0  0  0  0  0  0
   -4.7244   83.5026   56.5913 C   0  0  0  0  0  0  0  0  0  0  0  0
   -4.8398   83.8464   55.1621 C   0  0  0  0  0  0  0  0  0  0  0  0
   -4.7132   85.2856   54.7571 C   0  0  0  0  0  0  0  0  0  0  0  0
  1  2  2  0
  1  3  1  0
  1  4  1  0
  4  5  2  0
  5  6  1  0
  3  7  1  0
  6  7  2  0
  7  8  1  0
  9  8  1  1
  9 10  1  0
 11 12  1  0
  9 13  1  0
 12 13  2  0
  6 14  1  0
 13 14  1  0
 14 15  1  1
 14 16  1  0
 10 17  2  0
 16 17  1  0
 17 18  1  0
M  END
$$$$
