1GPK_HUP_A_1540
     RDKit          3D

 18 20  0  0  0  0  0  0  0  0999 V2000
   -3.0079   85.8749   54.8654 C   0  0  0  0  0  0  0  0  0  0  0  0
   -2.0682   86.5320   54.3737 O   0  0  0  0  0  0  0  0  0  0  0  0
   -3.4247   84.7551   54.2564 N   0  0  0  0  0  0  0  0  0  0  0  0
   -3.5782   86.3485   56.0352 C   0  0  0  0  0  0  0  0  0  0  0  0
   -4.6184   85.5973   56.5558 C   0  0  0  0  0  0  0  0  0  0  0  0
   -5.0402   84.4417   55.9171 C   0  0  0  0  0  0  0  0  0  0  0  0
   -4.4343   84.0176   54.7533 C   0  0  0  0  0  0  0  0  0  0  0  0
   -4.8213   82.8028   54.0128 C   0  0  0  0  0  0  0  0  0  0  0  0
   -5.8642   81.9851   54.7001 C   0  0  1  0  0  0  0  0  0  0  0  0
   -5.1659   81.1022   55.6986 C   0  0  0  0  0  0  0  0  0  0  0  0
   -8.6445   82.1038   54.1303 C   0  0  0  0  0  0  0  0  0  0  0  0
   -8.0526   83.0204   55.1111 C   0  0  0  0  0  0  0  0  0  0  0  0
   -6.7878   82.9071   55.4256 C   0  0  0  0  0  0  0  0  0  0  0  0
   -6.1623   83.7006   56.5479 C   0  0  2  0  0  0  0  0  0  0  0  0
   -7.1107   84.5520   57.2021 N   0  0  0  0  0  0  0  0  0  0  0  0
   -5.6803   82.6823   57.5417 C   0  0  0  0  0  0  0  0  0  0  0  0
   -4.9943   81.5233   56.9415 C   0  0  0  0  0  0  0  0  0  0  0  0
   -4.0245   80.7474   57.7834 C   0  0  0  0  0  0  0  0  0  0  0  0
  1  2  2  0
  1  3  1  0
  1  4  1  0
  4  5  2  0
  5  6  1  0
  3  7  1  0
  6  7  2  0
  7  8  1  0
  9  8  1  1
  9 10  1  0
 11 12  1  0
  9 13  1  0
 12 13  2  0
  6 14  1  0
 13 14  1  0
 14 15  1  1
 14 16  1  0
 10 17  2  0
 16 17  1  0
 17 18  1  0
M  END
$$$$
