1GPK_HUP_A_1540
     RDKit          3D

 18 20  0  0  0  0  0  0  0  0999 V2000
   25.3987   72.1106   77.6613 C   0  0  0  0  0  0  0  0  0  0  0  0
   25.7019   72.3960   78.8374 O   0  0  0  0  0  0  0  0  0  0  0  0
   24.1814   72.4254   77.1947 N   0  0  0  0  0  0  0  0  0  0  0  0
   26.3551   71.4723   76.8894 C   0  0  0  0  0  0  0  0  0  0  0  0
   25.9883   71.1690   75.5892 C   0  0  0  0  0  0  0  0  0  0  0  0
   24.7273   71.4995   75.1184 C   0  0  0  0  0  0  0  0  0  0  0  0
   23.8145   72.1355   75.9332 C   0  0  0  0  0  0  0  0  0  0  0  0
   22.4553   72.5212   75.5116 C   0  0  0  0  0  0  0  0  0  0  0  0
   22.1793   72.2712   74.0659 C   0  0  1  0  0  0  0  0  0  0  0  0
   22.7073   73.4482   73.2913 C   0  0  0  0  0  0  0  0  0  0  0  0
   20.8346   69.9002   73.2824 C   0  0  0  0  0  0  0  0  0  0  0  0
   22.3003   69.9566   73.2546 C   0  0  0  0  0  0  0  0  0  0  0  0
   22.9163   71.0416   73.6483 C   0  0  0  0  0  0  0  0  0  0  0  0
   24.4223   71.1354   73.7111 C   0  0  2  0  0  0  0  0  0  0  0  0
   25.0577   69.9241   73.2857 N   0  0  0  0  0  0  0  0  0  0  0  0
   24.7986   72.2269   72.7497 C   0  0  0  0  0  0  0  0  0  0  0  0
   23.9473   73.4281   72.8291 C   0  0  0  0  0  0  0  0  0  0  0  0
   24.5068   74.7376   72.3564 C   0  0  0  0  0  0  0  0  0  0  0  0
  1  2  2  0
  1  3  1  0
  1  4  1  0
  4  5  2  0
  5  6  1  0
  3  7  1  0
  6  7  2  0
  7  8  1  0
  9  8  1  1
  9 10  1  0
 11 12  1  0
  9 13  1  0
 12 13  2  0
  6 14  1  0
 13 14  1  0
 14 15  1  6
 14 16  1  0
 10 17  2  0
 16 17  1  0
 17 18  1  0
M  END
$$$$
