1GPK_HUP_A_1540
     RDKit          3D

 18 20  0  0  0  0  0  0  0  0999 V2000
   -3.4249   89.4806   55.9949 C   0  0  0  0  0  0  0  0  0  0  0  0
   -3.7179   90.6779   55.8017 O   0  0  0  0  0  0  0  0  0  0  0  0
   -2.8769   88.7631   55.0032 N   0  0  0  0  0  0  0  0  0  0  0  0
   -3.6875   88.9502   57.2469 C   0  0  0  0  0  0  0  0  0  0  0  0
   -3.3512   87.6195   57.4298 C   0  0  0  0  0  0  0  0  0  0  0  0
   -2.7853   86.8884   56.3971 C   0  0  0  0  0  0  0  0  0  0  0  0
   -2.5462   87.4697   55.1698 C   0  0  0  0  0  0  0  0  0  0  0  0
   -1.9489   86.7642   54.0211 C   0  0  0  0  0  0  0  0  0  0  0  0
   -1.5035   85.3739   54.3335 C   0  0  1  0  0  0  0  0  0  0  0  0
   -0.1291   85.4614   54.9396 C   0  0  0  0  0  0  0  0  0  0  0  0
   -3.0446   83.0530   53.7886 C   0  0  0  0  0  0  0  0  0  0  0  0
   -3.2018   83.7583   55.0654 C   0  0  0  0  0  0  0  0  0  0  0  0
   -2.4429   84.7890   55.3360 C   0  0  0  0  0  0  0  0  0  0  0  0
   -2.4574   85.4686   56.6846 C   0  0  2  0  0  0  0  0  0  0  0  0
   -3.3724   84.8456   57.5940 N   0  0  0  0  0  0  0  0  0  0  0  0
   -1.0676   85.3081   57.2318 C   0  0  0  0  0  0  0  0  0  0  0  0
    0.0052   85.5613   56.2525 C   0  0  0  0  0  0  0  0  0  0  0  0
    1.3593   85.9638   56.7583 C   0  0  0  0  0  0  0  0  0  0  0  0
  1  2  2  0
  1  3  1  0
  1  4  1  0
  4  5  2  0
  5  6  1  0
  3  7  1  0
  6  7  2  0
  7  8  1  0
  9  8  1  1
  9 10  1  0
 11 12  1  0
  9 13  1  0
 12 13  2  0
  6 14  1  0
 13 14  1  0
 14 15  1  1
 14 16  1  0
 10 17  2  0
 16 17  1  0
 17 18  1  0
M  END
$$$$
