1GPK_HUP_A_1540
     RDKit          3D

 18 20  0  0  0  0  0  0  0  0999 V2000
   -1.7306   84.1934   57.4153 C   0  0  0  0  0  0  0  0  0  0  0  0
   -2.2532   84.1100   56.2854 O   0  0  0  0  0  0  0  0  0  0  0  0
   -0.4676   83.7795   57.5945 N   0  0  0  0  0  0  0  0  0  0  0  0
   -2.4996   84.7189   58.4401 C   0  0  0  0  0  0  0  0  0  0  0  0
   -1.8915   84.7982   59.6816 C   0  0  0  0  0  0  0  0  0  0  0  0
   -0.5855   84.3672   59.8543 C   0  0  0  0  0  0  0  0  0  0  0  0
    0.1330   83.8520   58.7962 C   0  0  0  0  0  0  0  0  0  0  0  0
    1.5238   83.3723   58.8945 C   0  0  0  0  0  0  0  0  0  0  0  0
    2.1474   83.6031   60.2311 C   0  0  1  0  0  0  0  0  0  0  0  0
    2.6771   85.0114   60.2495 C   0  0  0  0  0  0  0  0  0  0  0  0
    2.3716   81.7950   62.4357 C   0  0  0  0  0  0  0  0  0  0  0  0
    1.1220   82.5205   62.1820 C   0  0  0  0  0  0  0  0  0  0  0  0
    1.0912   83.4650   61.2774 C   0  0  0  0  0  0  0  0  0  0  0  0
   -0.0159   84.4906   61.2204 C   0  0  2  0  0  0  0  0  0  0  0  0
   -0.9829   84.3005   62.2601 N   0  0  0  0  0  0  0  0  0  0  0  0
    0.6530   85.8183   61.4371 C   0  0  0  0  0  0  0  0  0  0  0  0
    1.9089   85.9969   60.6854 C   0  0  0  0  0  0  0  0  0  0  0  0
    2.3709   87.3914   60.3799 C   0  0  0  0  0  0  0  0  0  0  0  0
  1  2  2  0
  1  3  1  0
  1  4  1  0
  4  5  2  0
  5  6  1  0
  3  7  1  0
  6  7  2  0
  7  8  1  0
  9  8  1  6
  9 10  1  0
 11 12  1  0
  9 13  1  0
 12 13  2  0
  6 14  1  0
 13 14  1  0
 14 15  1  1
 14 16  1  0
 10 17  2  0
 16 17  1  0
 17 18  1  0
M  END
$$$$
