1SQ5_PAU_A_6001
     RDKit          3D

 15 14  0  0  0  0  0  0  0  0999 V2000
   54.1506    5.1342    3.6080 O   0  0  0  0  0  0  0  0  0  0  0  0
   52.2871    3.5280    3.0939 C   0  0  1  0  0  0  0  0  0  0  0  0
   53.7795    3.9991    2.8292 C   0  0  0  0  0  0  0  0  0  0  0  0
   51.3393    4.7847    2.8785 C   0  0  0  0  0  0  0  0  0  0  0  0
   52.0334    2.4535    2.0687 C   0  0  0  0  0  0  0  0  0  0  0  0
   52.0583    2.9849    4.6745 C   0  0  1  0  0  0  0  0  0  0  0  0
   52.1176    4.1299    5.5829 O   0  0  0  0  0  0  0  0  0  0  0  0
   50.6304    2.3056    4.9128 C   0  0  0  0  0  0  0  0  0  0  0  0
   49.6429    3.0506    5.4171 O   0  0  0  0  0  0  0  0  0  0  0  0
   50.4423    1.0381    4.5841 N   0  0  0  0  0  0  0  0  0  0  0  0
   49.2974    0.2208    5.0832 C   0  0  0  0  0  0  0  0  0  0  0  0
   49.6417   -0.5263    6.4068 C   0  0  0  0  0  0  0  0  0  0  0  0
   50.5660    0.3032    7.3261 C   0  0  0  0  0  0  0  0  0  0  0  0
   51.8829    0.3665    7.1499 O   0  0  0  0  0  0  0  0  0  0  0  0
   49.9323    0.9343    8.3028 O   0  0  0  0  0  0  0  0  0  0  0  0
  1  3  1  0
  2  3  1  0
  2  4  1  6
  2  5  1  0
  2  6  1  0
  6  7  1  1
  6  8  1  0
  8  9  2  0
  8 10  1  0
 10 11  1  0
 11 12  1  0
 12 13  1  0
 13 14  1  0
 13 15  2  0
M  END
