7P5T_5YG_A_402
     RDKit          3D

 43 45  0  0  0  0  0  0  0  0999 V2000
  -16.9952    9.4517  -20.6349 C   0  0  1  0  0  0  0  0  0  0  0  0
  -16.8592    6.6685  -21.7138 C   0  0  0  0  0  0  0  0  0  0  0  0
  -16.8843    5.4408  -22.3825 C   0  0  0  0  0  0  0  0  0  0  0  0
  -16.1553    5.2635  -23.5687 C   0  0  0  0  0  0  0  0  0  0  0  0
  -16.1755    3.9421  -24.2919 C   0  0  2  0  0  0  0  0  0  0  0  0
  -14.0208    2.6752  -23.6974 C   0  0  0  0  0  0  0  0  0  0  0  0
  -12.0284    1.3257  -23.3369 C   0  0  0  0  0  0  0  0  0  0  0  0
  -11.5344    0.2763  -21.0969 C   0  0  1  0  0  0  0  0  0  0  0  0
  -10.2418    1.0057  -20.8504 C   0  0  0  0  0  0  0  0  0  0  0  0
  -10.1067    1.8564  -19.7432 C   0  0  0  0  0  0  0  0  0  0  0  0
   -8.9114    2.5539  -19.5536 C   0  0  0  0  0  0  0  0  0  0  0  0
   -7.9994    1.6056  -21.5293 C   0  0  0  0  0  0  0  0  0  0  0  0
   -9.1774    0.8901  -21.7568 C   0  0  0  0  0  0  0  0  0  0  0  0
  -14.4080    2.4283  -22.3666 C   0  0  0  0  0  0  0  0  0  0  0  0
  -15.4173    6.3387  -24.0872 C   0  0  0  0  0  0  0  0  0  0  0  0
  -16.1086    7.7424  -22.2291 C   0  0  0  0  0  0  0  0  0  0  0  0
  -12.8274    2.1101  -24.1730 C   0  0  0  0  0  0  0  0  0  0  0  0
  -12.4173    1.0808  -22.0117 C   0  0  0  0  0  0  0  0  0  0  0  0
  -13.6086    1.6435  -21.5308 C   0  0  0  0  0  0  0  0  0  0  0  0
  -15.3930    7.5659  -23.4188 C   0  0  0  0  0  0  0  0  0  0  0  0
  -14.8134    3.4908  -24.5821 N   0  0  0  0  0  0  0  0  0  0  0  0
   -7.8917    2.4148  -20.4420 N   0  0  0  0  0  0  0  0  0  0  0  0
  -16.0491    8.9919  -21.5946 O   0  0  0  0  0  0  0  0  0  0  0  0
  -17.1308    8.6908  -19.8375 H   0  0  0  0  0  0  0  0  0  0  0  0
  -16.6179   10.3870  -20.1730 H   0  0  0  0  0  0  0  0  0  0  0  0
  -17.9667    9.6657  -21.1286 H   0  0  0  0  0  0  0  0  0  0  0  0
  -17.4266    6.7718  -20.7991 H   0  0  0  0  0  0  0  0  0  0  0  0
  -17.4701    4.6282  -21.9708 H   0  0  0  0  0  0  0  0  0  0  0  0
  -16.7272    4.0768  -25.2474 H   0  0  0  0  0  0  0  0  0  0  0  0
  -16.7167    3.1601  -23.7174 H   0  0  0  0  0  0  0  0  0  0  0  0
  -11.1038    0.9130  -23.7214 H   0  0  0  0  0  0  0  0  0  0  0  0
  -11.3306   -0.7224  -21.5422 H   0  0  0  0  0  0  0  0  0  0  0  0
  -12.0555    0.0860  -20.1329 H   0  0  0  0  0  0  0  0  0  0  0  0
  -10.9181    1.9793  -19.0367 H   0  0  0  0  0  0  0  0  0  0  0  0
   -8.7956    3.2095  -18.7008 H   0  0  0  0  0  0  0  0  0  0  0  0
   -7.1713    1.5203  -22.2201 H   0  0  0  0  0  0  0  0  0  0  0  0
   -9.2600    0.2550  -22.6300 H   0  0  0  0  0  0  0  0  0  0  0  0
  -15.3251    2.8333  -21.9655 H   0  0  0  0  0  0  0  0  0  0  0  0
  -14.8569    6.2244  -25.0069 H   0  0  0  0  0  0  0  0  0  0  0  0
  -12.5086    2.2880  -25.1924 H   0  0  0  0  0  0  0  0  0  0  0  0
  -13.9185    1.4756  -20.5066 H   0  0  0  0  0  0  0  0  0  0  0  0
  -14.8147    8.3848  -23.8275 H   0  0  0  0  0  0  0  0  0  0  0  0
  -14.3751    3.8379  -25.4656 H   0  0  0  0  0  0  0  0  0  0  0  0
  2  3  2  0
  3  4  1  0
  4  5  1  0
  8  9  1  0
  9 10  2  0
 10 11  1  0
 12 13  2  0
  9 13  1  0
  6 14  2  0
  4 15  2  0
  2 16  1  0
  7 17  2  0
  6 17  1  0
  8 18  1  0
  7 18  1  0
 18 19  2  0
 14 19  1  0
 15 20  1  0
 16 20  2  0
  6 21  1  0
  5 21  1  0
 11 22  2  0
 12 22  1  0
 16 23  1  0
  1 23  1  0
  1 24  1  1
  1 25  1  0
  1 26  1  0
  2 27  1  0
  3 28  1  0
  5 29  1  6
  5 30  1  0
  7 31  1  0
  8 32  1  6
  8 33  1  0
 10 34  1  0
 11 35  1  0
 12 36  1  0
 13 37  1  0
 14 38  1  0
 15 39  1  0
 17 40  1  0
 19 41  1  0
 20 42  1  0
 21 43  1  0
M  END
