1JD0_AZM_B_2401
     RDKit          3D

 13 13  0  0  0  0  0  0  0  0999 V2000
  -13.3730   -6.7640   21.1270 C   0  0  0  0  0  0  0  0  0  0  0  0
  -15.2340   -5.5800   20.6200 C   0  0  0  0  0  0  0  0  0  0  0  0
  -17.6860   -5.3980   20.2930 C   0  0  0  0  0  0  0  0  0  0  0  0
  -17.8640   -6.8770   20.5800 C   0  0  0  0  0  0  0  0  0  0  0  0
  -11.0910   -7.8990   20.3810 N   0  0  0  0  0  0  0  0  0  0  0  0
  -14.1830   -4.8330   20.5410 N   0  0  0  0  0  0  0  0  0  0  0  0
  -13.0520   -5.5400   20.8440 N   0  0  0  0  0  0  0  0  0  0  0  0
  -16.3850   -4.9120   20.3180 N   0  0  0  0  0  0  0  0  0  0  0  0
  -12.8010   -9.2720   21.6180 O   0  0  0  0  0  0  0  0  0  0  0  0
  -11.6250   -7.6290   22.8930 O   0  0  0  0  0  0  0  0  0  0  0  0
  -18.6970   -4.7370   20.0460 O   0  0  0  0  0  0  0  0  0  0  0  0
  -12.1460   -7.9640   21.5690 S   0  0  0  0  0  0  0  0  0  0  0  0
  -15.0170   -7.1920   21.0630 S   0  0  0  0  0  0  0  0  0  0  0  0
  3  4  1  0
  2  6  2  0
  1  7  2  0
  6  7  1  0
  2  8  1  0
  3  8  1  0
  3 11  2  0
  1 12  1  0
  5 12  1  0
  9 12  2  0
 10 12  2  0
  1 13  1  0
  2 13  1  0
M  END
$$$$
