1JD0_AZM_B_2401
     RDKit          3D

 19 19  0  0  0  0  0  0  0  0999 V2000
  -13.2970   -6.8757   20.7753 C   0  0  0  0  0  0  0  0  0  0  0  0
  -15.3059   -6.0501   20.1391 C   0  0  0  0  0  0  0  0  0  0  0  0
  -17.7857   -6.0472   20.1935 C   0  0  0  0  0  0  0  0  0  0  0  0
  -17.8098   -7.3781   20.9215 C   0  0  0  0  0  0  0  0  0  0  0  0
  -11.0057   -8.1288   20.2931 N   0  0  0  0  0  0  0  0  0  0  0  0
  -14.3632   -5.5830   19.3895 N   0  0  0  0  0  0  0  0  0  0  0  0
  -13.1440   -6.0748   19.7671 N   0  0  0  0  0  0  0  0  0  0  0  0
  -16.5398   -5.5774   19.7982 N   0  0  0  0  0  0  0  0  0  0  0  0
  -11.2251   -6.7218   22.3697 O   0  0  0  0  0  0  0  0  0  0  0  0
  -12.4186   -8.7913   22.3505 O   0  0  0  0  0  0  0  0  0  0  0  0
  -18.8617   -5.4721   20.0160 O   0  0  0  0  0  0  0  0  0  0  0  0
  -11.9156   -7.6962   21.5234 S   0  0  1  0  0  6  0  0  0  0  0  0
  -14.8719   -7.1214   21.3663 S   0  0  0  0  0  0  0  0  0  0  0  0
  -16.8129   -7.7583   21.0027 H   0  0  0  0  0  0  0  0  0  0  0  0
  -18.2206   -7.2419   21.9001 H   0  0  0  0  0  0  0  0  0  0  0  0
  -18.4130   -8.0726   20.3749 H   0  0  0  0  0  0  0  0  0  0  0  0
  -10.7072   -7.2979   19.7824 H   0  0  0  0  0  0  0  0  0  0  0  0
  -10.1861   -8.6299   20.6360 H   0  0  0  0  0  0  0  0  0  0  0  0
  -16.5480   -4.8013   19.1925 H   0  0  0  0  0  0  0  0  0  0  0  0
  3  4  1  0
  2  6  2  0
  1  7  2  0
  6  7  1  0
  2  8  1  0
  3  8  1  0
  3 11  2  0
  1 12  1  0
 12  5  1  1
  9 12  2  0
 10 12  2  0
  1 13  1  0
  2 13  1  0
  4 14  1  0
  4 15  1  0
  4 16  1  0
  5 17  1  0
  5 18  1  0
  8 19  1  0
M  END
