7L6D_BMF_A_501
     RDKit          3D

 28 30  0  0  0  0  0  0  0  0999 V2000
    8.1905    9.4058   21.5718 C   0  0  0  0  0  0  0  0  0  0  0  0
    6.2585    7.9536   21.9954 N   0  0  0  0  0  0  0  0  0  0  0  0
    6.0313    8.7343   24.5620 C   0  0  0  0  0  0  0  0  0  0  0  0
    6.7515    9.9753   26.6144 C   0  0  0  0  0  0  0  0  0  0  0  0
    6.7759   11.0611   30.2170 C   0  0  0  0  0  0  0  0  0  0  0  0
    7.0171    9.2549   23.7575 C   0  0  0  0  0  0  0  0  0  0  0  0
    4.1711    5.8909   21.1566 C   0  0  0  0  0  0  0  0  0  0  0  0
    9.4761   11.3563   20.9229 C   0  0  0  0  0  0  0  0  0  0  0  0
   11.2017   11.1483   19.1226 C   0  0  0  0  0  0  0  0  0  0  0  0
   10.1445   10.5798   19.9974 C   0  0  0  0  0  0  0  0  0  0  0  0
    9.8664    9.2218   19.8307 C   0  0  0  0  0  0  0  0  0  0  0  0
   10.5513    8.4218   18.8724 N   0  0  0  0  0  0  0  0  0  0  0  0
   10.2238    6.7521   18.6248 S   0  0  2  0  0  0  0  0  0  0  0  0
    8.7765    6.5982   17.6034 C   0  0  0  0  0  0  0  0  0  0  0  0
    9.9215    6.1296   19.9602 O   0  0  0  0  0  0  0  0  0  0  0  0
   11.3895    6.0277   17.9912 O   0  0  0  0  0  0  0  0  0  0  0  0
    8.8800    8.6841   20.6432 C   0  0  0  0  0  0  0  0  0  0  0  0
    7.1493    8.8658   22.4370 C   0  0  0  0  0  0  0  0  0  0  0  0
    5.3040    7.4424   22.7550 N   0  0  0  0  0  0  0  0  0  0  0  0
    5.1408    7.7988   24.0585 C   0  0  0  0  0  0  0  0  0  0  0  0
    5.8653    9.1096   25.9223 N   0  0  0  0  0  0  0  0  0  0  0  0
    6.4736   10.1972   27.9643 O   0  0  0  0  0  0  0  0  0  0  0  0
    7.2078   11.0718   28.7780 C   0  0  0  0  0  0  0  0  0  0  0  0
    7.7424   10.5335   26.0859 O   0  0  0  0  0  0  0  0  0  0  0  0
    4.0951    7.1230   24.5829 N   0  0  0  0  0  0  0  0  0  0  0  0
    3.6184    6.3584   23.6153 N   0  0  0  0  0  0  0  0  0  0  0  0
    4.3389    6.5348   22.4889 C   0  0  0  0  0  0  0  0  0  0  0  0
    8.5028   10.7480   21.6994 C   0  0  0  0  0  0  0  0  0  0  0  0
  3  6  2  0
  9 10  1  0
  8 10  2  0
 10 11  1  0
 11 12  1  0
 12 13  1  0
 13 14  1  6
 13 15  2  0
 13 16  2  0
 11 17  2  0
  1 17  1  0
  1 18  1  0
  6 18  1  0
  2 18  2  0
  2 19  1  0
  3 20  1  0
 19 20  1  0
  4 21  1  0
  3 21  1  0
  4 22  1  0
  5 23  1  0
 22 23  1  0
  4 24  2  0
 20 25  2  0
 25 26  1  0
 19 27  1  0
  7 27  1  0
 26 27  2  0
  8 28  1  0
  1 28  2  0
M  END
$$$$
