7M31_TDR_D_1107
     RDKit          3D

 15 15  0  0  0  0  0  0  0  0999 V2000
   -3.5503  105.0181   30.0380 N   0  0  0  0  0  4  0  0  0  0  0  0
   -4.6373  104.1094   30.3509 C   0  0  0  0  0  0  0  0  0  0  0  0
   -4.8299  103.7704   31.4705 O   0  0  0  0  0  0  0  0  0  0  0  0
   -5.4653  103.6193   29.3100 N   0  0  0  0  0  4  0  0  0  0  0  0
   -5.2508  104.0154   27.9697 C   0  0  0  0  0  0  0  0  0  0  0  0
   -5.9598  103.5986   27.1170 O   0  0  0  0  0  0  0  0  0  0  0  0
   -4.1164  104.9769   27.6444 C   0  0  0  0  0  0  0  0  0  0  0  0
   -3.8641  105.4090   26.2031 C   0  0  0  0  0  0  0  0  0  0  0  0
   -3.3206  105.4317   28.6314 C   0  0  0  0  0  0  0  0  0  0  0  0
   -2.9682  105.3587   30.7552 H   0  0  0  0  0  0  0  0  0  0  0  0
   -6.1977  102.9967   29.5225 H   0  0  0  0  0  0  0  0  0  0  0  0
   -4.5888  104.9526   25.5617 H   0  0  0  0  0  0  0  0  0  0  0  0
   -2.8824  105.1041   25.9060 H   0  0  0  0  0  0  0  0  0  0  0  0
   -3.9439  106.4736   26.1307 H   0  0  0  0  0  0  0  0  0  0  0  0
   -2.5442  106.0736   28.4075 H   0  0  0  0  0  0  0  0  0  0  0  0
  1  2  4  0
  2  3  2  0
  2  4  4  0
  4  5  4  0
  5  6  2  0
  5  7  4  0
  7  8  1  0
  1  9  4  0
  7  9  4  0
  1 10  1  0
  4 11  1  0
  8 12  1  0
  8 13  1  0
  8 14  1  0
  9 15  1  0
M  CHG  2   1   1   4   1
M  END
