7VJT_7IJ_B_1801
     RDKit          3D

 27 31  0  0  0  0  0  0  0  0999 V2000
   -6.1444  -22.4914  165.8643 C   0  0  0  0  0  0  0  0  0  0  0  0
   -5.1300  -23.2072  166.4651 C   0  0  0  0  0  0  0  0  0  0  0  0
   -4.6234  -24.3648  164.4339 C   0  0  0  0  0  0  0  0  0  0  0  0
   -9.9863  -19.9256  163.1209 C   0  0  0  0  0  0  0  0  0  0  0  0
  -10.6341  -19.7452  161.9193 C   0  0  0  0  0  0  0  0  0  0  0  0
   -6.7801  -23.2945  161.8416 C   0  0  0  0  0  0  0  0  0  0  0  0
   -8.9309  -22.1852  159.6426 C   0  0  0  0  0  0  0  0  0  0  0  0
   -4.3634  -24.1382  165.7829 C   0  0  0  0  0  0  0  0  0  0  0  0
   -7.5589  -22.3735  162.4713 C   0  0  0  0  0  0  0  0  0  0  0  0
   -8.9732  -20.8457  163.1556 C   0  0  0  0  0  0  0  0  0  0  0  0
   -7.3577  -22.0883  163.8287 C   0  0  0  0  0  0  0  0  0  0  0  0
   -9.2152  -21.4196  160.8704 C   0  0  0  0  0  0  0  0  0  0  0  0
  -10.2369  -20.4955  160.8124 C   0  0  0  0  0  0  0  0  0  0  0  0
   -9.8521  -23.3519  159.5598 N   0  0  0  0  0  0  0  0  0  0  0  0
   -5.6287  -23.6652  163.8096 C   0  0  0  0  0  0  0  0  0  0  0  0
  -10.5694  -23.2730  160.8632 C   0  0  0  0  0  0  0  0  0  0  0  0
  -11.5546  -24.4186  160.9599 C   0  0  0  0  0  0  0  0  0  0  0  0
  -12.6160  -24.2344  159.9278 C   0  0  0  0  0  0  0  0  0  0  0  0
  -11.9538  -24.0258  158.5815 C   0  0  0  0  0  0  0  0  0  0  0  0
  -10.9206  -22.9419  158.6222 C   0  0  0  0  0  0  0  0  0  0  0  0
   -8.5791  -21.5875  162.0644 C   0  0  0  0  0  0  0  0  0  0  0  0
   -6.3699  -22.7464  164.5239 C   0  0  0  0  0  0  0  0  0  0  0  0
   -8.2192  -21.1720  164.2036 O   0  0  0  0  0  0  0  0  0  0  0  0
   -5.8420  -23.9032  162.5501 O   0  0  0  0  0  0  0  0  0  0  0  0
   -6.8406  -23.6420  160.6503 O   0  0  0  0  0  0  0  0  0  0  0  0
  -10.9595  -20.2270  159.6417 O   0  0  0  0  0  0  0  0  0  0  0  0
   -3.3385  -24.8493  166.4253 O   0  0  0  0  0  0  0  0  0  0  0  0
  1  2  2  0
  4  5  1  0
  3  8  2  0
  2  8  1  0
  6  9  1  0
  4 10  2  0
  9 11  2  0
  7 12  1  0
 12 13  1  0
  5 13  2  0
  7 14  1  0
  3 15  1  0
 14 16  1  0
 16 17  1  0
 17 18  1  0
 18 19  1  0
 14 20  1  0
 19 20  1  0
  9 21  1  0
 10 21  1  0
 12 21  2  0
 15 22  2  0
  1 22  1  0
 11 22  1  0
 11 23  1  0
 10 23  1  0
 15 24  1  0
  6 24  1  0
  6 25  2  0
 13 26  1  0
  8 27  1  0
M  END
$$$$
