8EX2_Q2Q_A_901
     RDKit          3D

 26 29  0  0  0  0  0  0  0  0999 V2000
   25.4633   16.0920   20.0213 C   0  0  0  0  0  0  0  0  0  0  0  0
   24.1665   16.5743   19.8536 C   0  0  0  0  0  0  0  0  0  0  0  0
   23.0638   15.6859   19.8927 C   0  0  0  0  0  0  0  0  0  0  0  0
   23.1977   14.2889   20.1012 C   0  0  0  0  0  0  0  0  0  0  0  0
   24.5453   13.8491   20.3081 C   0  0  0  0  0  0  0  0  0  0  0  0
   25.6463   14.7163   20.2520 C   0  0  0  0  0  0  0  0  0  0  0  0
   22.0236   13.3039   20.2047 C   0  0  0  0  0  0  0  0  0  0  0  0
   21.4939   12.6403   19.0863 C   0  0  0  0  0  0  0  0  0  0  0  0
   20.3946   11.7351   19.1589 C   0  0  0  0  0  0  0  0  0  0  0  0
   20.3946   12.2645   21.5540 C   0  0  0  0  0  0  0  0  0  0  0  0
   19.5874   11.8473   22.7220 C   0  0  0  0  0  0  0  0  0  0  0  0
   18.6694   10.9777   22.2009 C   0  0  0  0  0  0  0  0  0  0  0  0
   17.5319   10.2415   22.8964 C   0  0  2  0  0  0  0  0  0  0  0  0
   19.8027   12.2522   24.1093 C   0  0  0  0  0  0  0  0  0  0  0  0
   21.1257   12.5714   24.5467 C   0  0  0  0  0  0  0  0  0  0  0  0
   21.4141   12.9603   25.8765 C   0  0  0  0  0  0  0  0  0  0  0  0
   20.3750   13.0330   26.8187 C   0  0  0  0  0  0  0  0  0  0  0  0
   19.0615   12.6714   26.4224 C   0  0  0  0  0  0  0  0  0  0  0  0
   18.7849   12.2859   25.0886 C   0  0  0  0  0  0  0  0  0  0  0  0
   18.0161    9.6234   23.9780 F   0  0  0  0  0  0  0  0  0  0  0  0
   16.9871    9.3470   22.0632 F   0  0  0  0  0  0  0  0  0  0  0  0
   16.5331   11.0933   23.2820 F   0  0  0  0  0  0  0  0  0  0  0  0
   19.8385   11.5972   20.4530 N   0  0  0  0  0  0  0  0  0  0  0  0
   21.4310   13.0994   21.4387 N   0  0  0  0  0  0  0  0  0  0  0  0
   18.7979   10.8007   20.8666 N   0  0  0  0  0  0  0  0  0  0  0  0
   19.8327   11.0840   18.2763 O   0  0  0  0  0  0  0  0  0  0  0  0
  1  2  2  0
  2  3  1  0
  3  4  2  0
  4  5  1  0
  5  6  2  0
  1  6  1  0
  4  7  1  0
  7  8  1  0
  8  9  1  0
 10 11  2  0
 11 12  1  0
 12 13  1  0
 11 14  1  0
 14 15  2  0
 15 16  1  0
 16 17  2  0
 17 18  1  0
 18 19  2  0
 14 19  1  0
 13 20  1  1
 13 21  1  0
 13 22  1  0
 10 23  1  0
  9 23  1  0
  7 24  2  0
 10 24  1  0
 12 25  2  0
 23 25  1  0
  9 26  2  0
M  END
