1YVF_PH7_A_800
     RDKit          3D

 44 46  0  0  0  0  0  0  0  0999 V2000
  -15.6038   54.1610   49.6682 C   0  0  0  0  0  0  0  0  0  0  0  0
  -16.7722   54.8431   49.5495 C   0  0  0  0  0  0  0  0  0  0  0  0
  -16.9611   56.2929   49.7001 N   0  0  0  0  0  0  0  0  0  0  0  0
  -15.9923   57.2176   49.4430 C   0  0  0  0  0  0  0  0  0  0  0  0
  -15.6593   57.5531   48.3078 O   0  0  0  0  0  0  0  0  0  0  0  0
  -14.2587   54.6391   50.0338 C   0  0  0  0  0  0  0  0  0  0  0  0
  -13.7610   54.5746   51.3538 C   0  0  0  0  0  0  0  0  0  0  0  0
  -11.7364   55.7774   50.6694 C   0  0  0  0  0  0  0  0  0  0  0  0
  -13.4767   55.2580   49.0735 C   0  0  0  0  0  0  0  0  0  0  0  0
  -12.2455   55.8151   49.3698 C   0  0  0  0  0  0  0  0  0  0  0  0
  -10.2931   57.5912   51.4579 C   0  0  0  0  0  0  0  0  0  0  0  0
  -10.6164   57.8976   52.7948 C   0  0  0  0  0  0  0  0  0  0  0  0
  -10.3838   59.2025   53.3117 C   0  0  0  0  0  0  0  0  0  0  0  0
   -9.7836   60.1844   52.4985 C   0  0  0  0  0  0  0  0  0  0  0  0
   -9.4147   59.8821   51.1715 C   0  0  0  0  0  0  0  0  0  0  0  0
   -9.6813   58.5989   50.6605 C   0  0  0  0  0  0  0  0  0  0  0  0
  -17.9841   54.0770   49.1454 C   0  0  0  0  0  0  0  0  0  0  0  0
  -17.8413   52.8704   48.8587 O   0  0  0  0  0  0  0  0  0  0  0  0
  -19.0862   54.6581   49.0357 O   0  0  0  0  0  0  0  0  0  0  0  0
  -15.3917   57.7980   50.6399 C   0  0  0  0  0  0  0  0  0  0  0  0
  -15.0463   59.1649   50.6518 C   0  0  0  0  0  0  0  0  0  0  0  0
  -14.6660   59.7755   51.8601 C   0  0  0  0  0  0  0  0  0  0  0  0
  -14.6331   59.0143   53.0577 C   0  0  0  0  0  0  0  0  0  0  0  0
  -14.9214   57.6294   53.0395 C   0  0  0  0  0  0  0  0  0  0  0  0
  -15.2793   57.0165   51.8251 C   0  0  0  0  0  0  0  0  0  0  0  0
  -12.5171   55.1826   51.6697 C   0  0  0  0  0  0  0  0  0  0  0  0
  -10.4896   56.2875   50.9711 O   0  0  0  0  0  0  0  0  0  0  0  0
  -11.1974   56.5215   53.9163 Br  0  0  0  0  0  0  0  0  0  0  0  0
  -15.6681   53.1500   49.4716 H   0  0  0  0  0  0  0  0  0  0  0  0
  -17.8398   56.6158   50.0049 H   0  0  0  0  0  0  0  0  0  0  0  0
  -14.2996   54.0870   52.0867 H   0  0  0  0  0  0  0  0  0  0  0  0
  -13.8243   55.3054   48.1029 H   0  0  0  0  0  0  0  0  0  0  0  0
  -11.6962   56.2644   48.6205 H   0  0  0  0  0  0  0  0  0  0  0  0
  -10.6544   59.4298   54.2812 H   0  0  0  0  0  0  0  0  0  0  0  0
   -9.6131   61.1296   52.8761 H   0  0  0  0  0  0  0  0  0  0  0  0
   -8.9548   60.5936   50.5825 H   0  0  0  0  0  0  0  0  0  0  0  0
   -9.4273   58.3830   49.6838 H   0  0  0  0  0  0  0  0  0  0  0  0
  -17.0025   52.4628   48.9514 H   0  0  0  0  0  0  0  0  0  0  0  0
  -15.0726   59.7143   49.7786 H   0  0  0  0  0  0  0  0  0  0  0  0
  -14.4112   60.7753   51.8761 H   0  0  0  0  0  0  0  0  0  0  0  0
  -14.3965   59.4755   53.9501 H   0  0  0  0  0  0  0  0  0  0  0  0
  -14.8697   57.0747   53.9082 H   0  0  0  0  0  0  0  0  0  0  0  0
  -15.4605   56.0010   51.7929 H   0  0  0  0  0  0  0  0  0  0  0  0
  -12.1844   55.1864   52.6466 H   0  0  0  0  0  0  0  0  0  0  0  0
  1  2  2  3
  2  3  1  0
  3  4  1  0
  4  5  2  0
  1  6  1  0
  6  7  2  0
  6  9  1  0
  8 10  1  0
  9 10  2  0
 11 12  2  0
 12 13  1  0
 13 14  2  0
 14 15  1  0
 11 16  1  0
 15 16  2  0
  2 17  1  0
 17 18  1  0
 17 19  2  0
  4 20  1  0
 20 21  2  0
 21 22  1  0
 22 23  2  0
 23 24  1  0
 20 25  1  0
 24 25  2  0
  7 26  1  0
  8 26  2  0
  8 27  1  0
 11 27  1  0
 12 28  1  0
  1 29  1  0
  3 30  1  0
  7 31  1  0
  9 32  1  0
 10 33  1  0
 13 34  1  0
 14 35  1  0
 15 36  1  0
 16 37  1  0
 18 38  1  0
 21 39  1  0
 22 40  1  0
 23 41  1  0
 24 42  1  0
 25 43  1  0
 26 44  1  0
M  END
