
     RDKit          3D

 16 16  0  0  0  0  0  0  0  0999 V2000
   18.5767   -0.9897   19.4845 C   0  0  2  0  0  0  0  0  0  0  0  0
   18.4377   -2.3448   18.7616 C   0  0  2  0  0  0  0  0  0  0  0  0
   17.3934   -3.2460   19.4261 C   0  0  2  0  0  0  0  0  0  0  0  0
   16.0929   -2.4814   19.7062 C   0  0  2  0  0  0  0  0  0  0  0  0
   16.3854   -1.1366   20.4066 C   0  0  0  0  0  0  0  0  0  0  0  0
   15.1119   -0.2914   20.5636 C   0  0  0  0  0  0  0  0  0  0  0  0
   19.2068   -1.1232   20.7482 O   0  0  0  0  0  0  0  0  0  0  0  0
   19.6961   -3.0247   18.7044 O   0  0  0  0  0  0  0  0  0  0  0  0
   15.2519   -3.3347   20.4924 O   0  0  0  0  0  0  0  0  0  0  0  0
   17.3115   -0.3532   19.6376 O   0  0  0  0  0  0  0  0  0  0  0  0
   14.4189   -0.1395   19.3336 O   0  0  0  0  0  0  0  0  0  0  0  0
   12.8595    0.3200   19.3814 S   0  0  0  0  0  6  0  0  0  0  0  0
   12.0546   -0.8787   19.4146 O   0  0  0  0  0  0  0  0  0  0  0  0
   12.7060    1.3823   20.3450 O   0  0  0  0  0  0  0  0  0  0  0  0
   12.6377    0.9374   17.9126 O   0  0  0  0  0  0  0  0  0  0  0  0
   17.9135   -3.7982   20.6479 O   0  0  0  0  0  0  0  0  0  0  0  0
  1  2  1  0
  2  3  1  0
  3  4  1  0
  4  5  1  0
  5  6  1  0
  1  7  1  1
  2  8  1  1
  4  9  1  1
  1 10  1  0
  5 10  1  0
  6 11  1  0
 11 12  1  0
 12 13  2  0
 12 14  2  0
 12 15  1  0
  3 16  1  1
M  END
