1OPK_P16_A_2
     RDKit          3D

 29 32  0  0  0  0  0  0  0  0999 V2000
   37.4806   24.4276   14.2738 O   0  0  0  0  0  0  0  0  0  0  0  0
   38.6696   25.1079   13.9855 C   0  0  0  0  0  0  0  0  0  0  0  0
   39.8745   24.5330   14.7136 C   0  0  0  0  0  0  0  0  0  0  0  0
   40.6372   25.3552   15.6166 C   0  0  0  0  0  0  0  0  0  0  0  0
   41.7587   24.8261   16.2867 C   0  0  0  0  0  0  0  0  0  0  0  0
   42.1551   23.4689   16.0769 C   0  0  0  0  0  0  0  0  0  0  0  0
   41.4020   22.6401   15.1819 C   0  0  0  0  0  0  0  0  0  0  0  0
   41.7168   21.2903   14.8745 N   0  0  0  0  0  0  0  0  0  0  0  0
   42.9217   20.6592   15.0115 C   0  0  0  0  0  0  0  0  0  0  0  0
   42.9942   19.4101   14.4183 N   0  0  0  0  0  0  0  0  0  0  0  0
   44.1706   18.7629   14.4990 C   0  0  0  0  0  0  0  0  0  0  0  0
   45.3137   19.3069   15.1500 C   0  0  0  0  0  0  0  0  0  0  0  0
   46.5770   18.6316   15.2416 C   0  0  0  0  0  0  0  0  0  0  0  0
   47.6327   19.2108   15.8824 C   0  0  0  0  0  0  0  0  0  0  0  0
   47.4881   20.5605   16.5432 C   0  0  0  0  0  0  0  0  0  0  0  0
   48.3797   21.1594   17.1479 O   0  0  0  0  0  0  0  0  0  0  0  0
   46.2071   21.2079   16.4236 N   0  0  0  0  0  0  0  0  0  0  0  0
   45.1354   20.6037   15.7639 C   0  0  0  0  0  0  0  0  0  0  0  0
   43.9507   21.2590   15.6666 N   0  0  0  0  0  0  0  0  0  0  0  0
   45.9899   22.5380   17.0456 C   0  0  0  0  0  0  0  0  0  0  0  0
   48.9540   18.5558   15.9809 C   0  0  0  0  0  0  0  0  0  0  0  0
   49.3331   17.7943   17.1218 C   0  0  0  0  0  0  0  0  0  0  0  0
   48.1999   17.5617   18.4332 Cl  0  0  0  0  0  0  0  0  0  0  0  0
   50.6287   17.1834   17.2018 C   0  0  0  0  0  0  0  0  0  0  0  0
   51.5675   17.3597   16.1442 C   0  0  0  0  0  0  0  0  0  0  0  0
   51.2166   18.1136   14.9854 C   0  0  0  0  0  0  0  0  0  0  0  0
   49.9200   18.7143   14.9283 C   0  0  0  0  0  0  0  0  0  0  0  0
   49.5045   19.6288   13.5069 Cl  0  0  0  0  0  0  0  0  0  0  0  0
   40.2607   23.1876   14.5028 C   0  0  0  0  0  0  0  0  0  0  0  0
  1  2  1  0
  2  3  1  0
  3  4  2  0
  4  5  1  0
  5  6  2  0
  6  7  1  0
  7  8  1  0
  8  9  1  0
  9 10  2  0
 10 11  1  0
 11 12  2  0
 12 13  1  0
 13 14  2  0
 14 15  1  0
 15 16  2  0
 15 17  1  0
 12 18  1  0
 17 18  1  0
  9 19  1  0
 18 19  2  0
 17 20  1  0
 14 21  1  0
 21 22  2  0
 22 23  1  0
 22 24  1  0
 24 25  2  0
 25 26  1  0
 21 27  1  0
 26 27  2  0
 27 28  1  0
  3 29  1  0
  7 29  2  0
M  END
