1Q4G_BFL_B_1701
     RDKit          3D

 31 32  0  0  0  0  0  0  0  0999 V2000
   -0.2276   -0.7632   -1.2152 C   0  0  0  0  0  0  0  0  0  0  0  0
   -3.4425   -4.1363    0.9941 C   0  0  0  0  0  0  0  0  0  0  0  0
   -2.3570   -3.9072    1.8424 C   0  0  0  0  0  0  0  0  0  0  0  0
   -1.4460   -2.8857    1.5564 C   0  0  0  0  0  0  0  0  0  0  0  0
    2.1767    2.1844   -0.7762 C   0  0  1  0  0  0  0  0  0  0  0  0
    3.4262    1.6333   -1.4089 C   0  0  0  0  0  0  0  0  0  0  0  0
    1.5338    3.2691   -1.6488 C   0  0  0  0  0  0  0  0  0  0  0  0
    0.6819    0.2577   -1.5034 C   0  0  0  0  0  0  0  0  0  0  0  0
    1.1944    1.0701   -0.4758 C   0  0  0  0  0  0  0  0  0  0  0  0
    0.7737    0.8398    0.8445 C   0  0  0  0  0  0  0  0  0  0  0  0
   -0.1351   -0.1820    1.1329 C   0  0  0  0  0  0  0  0  0  0  0  0
   -0.6462   -0.9952    0.1065 C   0  0  0  0  0  0  0  0  0  0  0  0
   -1.6126   -2.0808    0.4133 C   0  0  0  0  0  0  0  0  0  0  0  0
   -2.7108   -2.3223   -0.4342 C   0  0  0  0  0  0  0  0  0  0  0  0
   -3.6192   -3.3446   -0.1427 C   0  0  0  0  0  0  0  0  0  0  0  0
    3.4968    1.4396   -2.7863 O   0  0  0  0  0  0  0  0  0  0  0  0
    4.4012    1.3026   -0.6820 O   0  0  0  0  0  0  0  0  0  0  0  0
   -0.5901   -1.3831   -2.0255 H   0  0  0  0  0  0  0  0  0  0  0  0
   -4.1466   -4.9273    1.2176 H   0  0  0  0  0  0  0  0  0  0  0  0
   -2.2190   -4.5239    2.7212 H   0  0  0  0  0  0  0  0  0  0  0  0
   -0.6025   -2.7371    2.2188 H   0  0  0  0  0  0  0  0  0  0  0  0
    2.4768    2.6812    0.1741 H   0  0  0  0  0  0  0  0  0  0  0  0
    2.2555    4.0966   -1.8193 H   0  0  0  0  0  0  0  0  0  0  0  0
    1.2201    2.8630   -2.6339 H   0  0  0  0  0  0  0  0  0  0  0  0
    0.6409    3.6868   -1.1364 H   0  0  0  0  0  0  0  0  0  0  0  0
    0.9884    0.4105   -2.5301 H   0  0  0  0  0  0  0  0  0  0  0  0
    1.1458    1.4537    1.6553 H   0  0  0  0  0  0  0  0  0  0  0  0
   -0.4524   -0.3237    2.1584 H   0  0  0  0  0  0  0  0  0  0  0  0
   -2.8770   -1.7100   -1.3116 H   0  0  0  0  0  0  0  0  0  0  0  0
   -4.4629   -3.5207   -0.7974 H   0  0  0  0  0  0  0  0  0  0  0  0
    4.3286    1.0515   -3.2146 H   0  0  0  0  0  0  0  0  0  0  0  0
  2  3  2  0
  3  4  1  0
  5  6  1  0
  5  7  1  0
  1  8  2  0
  5  9  1  0
  8  9  1  0
  9 10  2  0
 10 11  1  0
  1 12  1  0
 11 12  2  0
  4 13  2  0
 12 13  1  0
 13 14  1  0
  2 15  1  0
 14 15  2  0
  6 16  1  0
  6 17  2  0
  1 18  1  0
  2 19  1  0
  3 20  1  0
  4 21  1  0
  5 22  1  1
  7 23  1  0
  7 24  1  0
  7 25  1  0
  8 26  1  0
 10 27  1  0
 11 28  1  0
 14 29  1  0
 15 30  1  0
 16 31  1  0
M  END
