1Q4G_BFL_B_1701
     RDKit          3D

 17 18  0  0  0  0  0  0  0  0999 V2000
   68.9350   22.1920  190.6920 C   0  0  0  0  0  0  0  0  0  0  0  0
   68.2400   25.9030  187.0300 C   0  0  0  0  0  0  0  0  0  0  0  0
   67.3810   24.7990  186.7850 C   0  0  0  0  0  0  0  0  0  0  0  0
   67.2340   23.7680  187.7660 C   0  0  0  0  0  0  0  0  0  0  0  0
   67.5220   19.7020  193.2190 C   0  0  1  0  0  0  0  0  0  0  0  0
   67.3680   20.4630  194.5350 C   0  0  0  0  0  0  0  0  0  0  0  0
   66.4530   18.6280  192.9680 C   0  0  0  0  0  0  0  0  0  0  0  0
   68.8390   21.2130  191.6910 C   0  0  0  0  0  0  0  0  0  0  0  0
   67.5640   20.7790  192.0990 C   0  0  0  0  0  0  0  0  0  0  0  0
   66.3870   21.3340  191.4880 C   0  0  0  0  0  0  0  0  0  0  0  0
   66.4890   22.3310  190.4710 C   0  0  0  0  0  0  0  0  0  0  0  0
   67.8030   22.7880  190.0480 C   0  0  0  0  0  0  0  0  0  0  0  0
   67.9560   23.8520  188.9940 C   0  0  0  0  0  0  0  0  0  0  0  0
   68.8390   24.9870  189.2370 C   0  0  0  0  0  0  0  0  0  0  0  0
   68.9600   25.9970  188.2330 C   0  0  0  0  0  0  0  0  0  0  0  0
   66.3390   20.9560  194.9100 O   0  0  0  0  0  0  0  0  0  0  0  0
   68.4620   20.5310  195.2230 O   0  0  0  0  0  0  0  0  0  0  0  0
  2  3  2  0
  3  4  1  0
  5  6  1  0
  5  7  1  6
  1  8  2  0
  5  9  1  0
  8  9  1  0
  9 10  2  0
 10 11  1  0
  1 12  1  0
 11 12  2  0
  4 13  2  0
 12 13  1  0
 13 14  1  0
  2 15  1  0
 14 15  2  0
  6 16  1  0
  6 17  2  0
M  END
$$$$
