7AS1_21G_A_501
     RDKit          3D

 48 52  0  0  0  0  0  0  0  0999 V2000
   -4.1298    9.1050   -0.6859 C   0  0  0  0  0  0  0  0  0  0  0  0
   -5.2049    8.3499   -0.2878 C   0  0  0  0  0  0  0  0  0  0  0  0
   -6.5024    8.6395   -0.7614 C   0  0  0  0  0  0  0  0  0  0  0  0
   -5.7052   10.3620   -2.0265 C   0  0  0  0  0  0  0  0  0  0  0  0
   -4.3841   10.1396   -1.6060 C   0  0  0  0  0  0  0  0  0  0  0  0
   -3.5901   11.1577   -2.2729 C   0  0  0  0  0  0  0  0  0  0  0  0
   -6.7702    9.6320   -1.6107 N   0  0  0  0  0  0  0  0  0  0  0  0
   -4.4895   11.8871   -3.0319 C   0  0  0  0  0  0  0  0  0  0  0  0
   -5.7312   11.3900   -2.8753 N   0  0  0  0  0  4  0  0  0  0  0  0
   -2.1894   11.3862   -2.1139 C   0  0  0  0  0  0  0  0  0  0  0  0
   -1.6063   12.3913   -2.7926 N   0  0  0  0  0  0  0  0  0  0  0  0
   -0.2814   12.5913   -2.6495 C   0  0  0  0  0  0  0  0  0  0  0  0
    0.4626   11.7662   -1.8613 C   0  0  0  0  0  0  0  0  0  0  0  0
   -0.1537   10.7134   -1.1843 C   0  0  0  0  0  0  0  0  0  0  0  0
   -1.4673   10.5326   -1.3826 N   0  0  0  0  0  0  0  0  0  0  0  0
    0.5032    9.8889   -0.3775 N   0  0  0  0  0  0  0  0  0  0  0  0
    0.8459   10.1792    1.0237 C   0  0  1  0  0  0  0  0  0  0  0  0
    2.2198    9.6330    1.3913 C   0  0  1  0  0  0  0  0  0  0  0  0
    3.0226   10.7600    2.0507 C   0  0  1  0  0  0  0  0  0  0  0  0
    3.2609   11.8479    1.0174 C   0  0  0  0  0  0  0  0  0  0  0  0
    1.9588   12.2998    0.4121 C   0  0  0  0  0  0  0  0  0  0  0  0
    0.8294   11.6603    1.2076 C   0  0  2  0  0  0  0  0  0  0  0  0
    0.9912   11.9556    2.6962 C   0  0  0  0  0  0  0  0  0  0  0  0
    2.2475   11.3645    3.2265 C   0  0  0  0  0  0  0  0  0  0  0  0
    2.2690    8.4519    2.2719 C   0  0  0  0  0  0  0  0  0  0  0  0
    2.1689    7.3258    1.8905 O   0  0  0  0  0  0  0  0  0  0  0  0
    2.4917    8.7791    3.5289 O   0  0  0  0  0  0  0  0  0  0  0  0
    1.7754   12.0508   -1.6740 F   0  0  0  0  0  0  0  0  0  0  0  0
   -5.0341    7.3260    0.5489 F   0  0  0  0  0  0  0  0  0  0  0  0
   -3.1794    8.9227   -0.3275 H   0  0  0  0  0  0  0  0  0  0  0  0
   -7.2850    8.0523   -0.4332 H   0  0  0  0  0  0  0  0  0  0  0  0
   -4.2446   12.6924   -3.6291 H   0  0  0  0  0  0  0  0  0  0  0  0
   -6.5385   11.7345   -3.3213 H   0  0  0  0  0  0  0  0  0  0  0  0
    0.1736   13.3763   -3.1413 H   0  0  0  0  0  0  0  0  0  0  0  0
    0.7818    9.0185   -0.7438 H   0  0  0  0  0  0  0  0  0  0  0  0
    0.1308    9.7047    1.6628 H   0  0  0  0  0  0  0  0  0  0  0  0
    2.6265    9.2879    0.4638 H   0  0  0  0  0  0  0  0  0  0  0  0
    3.9472   10.3625    2.4141 H   0  0  0  0  0  0  0  0  0  0  0  0
    3.7375   12.6819    1.4887 H   0  0  0  0  0  0  0  0  0  0  0  0
    3.8836   11.4551    0.2411 H   0  0  0  0  0  0  0  0  0  0  0  0
    1.8832   13.3659    0.4652 H   0  0  0  0  0  0  0  0  0  0  0  0
    1.9034   12.0087   -0.6160 H   0  0  0  0  0  0  0  0  0  0  0  0
   -0.0944   12.0676    0.8531 H   0  0  0  0  0  0  0  0  0  0  0  0
    1.0154   13.0155    2.8415 H   0  0  0  0  0  0  0  0  0  0  0  0
    0.1649   11.5225    3.2200 H   0  0  0  0  0  0  0  0  0  0  0  0
    2.8359   12.1247    3.6964 H   0  0  0  0  0  0  0  0  0  0  0  0
    2.0248   10.6093    3.9510 H   0  0  0  0  0  0  0  0  0  0  0  0
    2.0102    7.1506    0.9838 H   0  0  0  0  0  0  0  0  0  0  0  0
  1  2  4  0
  2  3  4  0
  4  5  4  0
  1  5  4  0
  5  6  4  0
  4  7  4  0
  3  7  4  0
  6  8  4  0
  4  9  4  0
  8  9  4  0
  6 10  1  0
 10 11  4  0
 11 12  4  0
 12 13  4  0
 13 14  4  0
 10 15  4  0
 14 15  4  0
 14 16  1  0
 17 16  1  0
 17 18  1  0
 18 19  1  0
 19 20  1  0
 20 21  1  0
 17 22  1  0
 22 21  1  0
 22 23  1  0
 23 24  1  0
 19 24  1  0
 18 25  1  0
 25 26  1  0
 25 27  2  0
 13 28  1  0
  2 29  1  0
  1 30  1  0
  3 31  1  0
  8 32  1  0
  9 33  1  0
 12 34  1  0
 16 35  1  0
 17 36  1  6
 18 37  1  1
 19 38  1  6
 20 39  1  0
 20 40  1  0
 21 41  1  0
 21 42  1  0
 22 43  1  1
 23 44  1  0
 23 45  1  0
 24 46  1  0
 24 47  1  0
 26 48  1  0
M  CHG  1   9   1
M  END
