8AUH_L9I_B_403
     RDKit          3D

 20 19  0  0  0  0  0  0  0  0999 V2000
    1.5341    3.3477   -1.1377 N   0  0  0  0  0  0  0  0  0  0  0  0
    0.8962    5.4799   -0.2508 C   0  0  0  0  0  0  0  0  0  0  0  0
    0.4933    4.9631    0.8264 O   0  0  0  0  0  0  0  0  0  0  0  0
    2.2874    5.2997   -2.3869 C   0  0  0  0  0  0  0  0  0  0  0  0
    2.0947    3.4023   -3.9867 C   0  0  0  0  0  0  0  0  0  0  0  0
    1.7251    2.5965   -2.7467 C   0  0  0  0  0  0  0  0  0  0  0  0
    0.6568    6.9399   -0.4881 C   0  0  0  0  0  0  0  0  0  0  0  0
    1.5723    4.6445   -1.2691 C   0  0  0  0  0  0  0  0  0  0  0  0
    2.1447    4.7955   -3.6853 O   0  0  0  0  0  0  0  0  0  0  0  0
    2.0346    2.4384   -2.0493 O   0  0  0  0  0  0  0  0  0  0  0  0
    2.9771    6.3353   -2.1788 O   0  0  0  0  0  0  0  0  0  0  0  0
    3.0702    3.0586   -4.3945 H   0  0  0  0  0  0  0  0  0  0  0  0
    1.3192    3.2366   -4.7638 H   0  0  0  0  0  0  0  0  0  0  0  0
    1.6368    1.5221   -3.0125 H   0  0  0  0  0  0  0  0  0  0  0  0
    0.7526    2.9486   -2.3424 H   0  0  0  0  0  0  0  0  0  0  0  0
    2.5057    2.7072   -1.9655 H   0  0  0  0  0  0  0  0  0  0  0  0
    0.2102    7.4139    0.4118 H   0  0  0  0  0  0  0  0  0  0  0  0
   -0.0395    7.0704   -1.3430 H   0  0  0  0  0  0  0  0  0  0  0  0
    1.6179    7.4471   -0.7154 H   0  0  0  0  0  0  0  0  0  0  0  0
    2.3328    2.7016   -2.9794 H   0  0  0  0  0  0  0  0  0  0  0  0
  2  3  2  0
  5  6  1  0
  2  7  1  0
  1  8  2  3
  4  8  1  0
  2  8  1  0
  4  9  1  0
  5  9  1  0
  1 10  1  0
  4 11  2  0
  5 12  1  0
  5 13  1  0
  6 14  1  0
  6 15  1  0
  6 16  1  0
  7 17  1  0
  7 18  1  0
  7 19  1  0
 10 20  1  0
M  END
