7RZL_NPO_A_301
     RDKit          3D

 15 15  0  0  0  0  0  0  0  0999 V2000
    0.2064    1.2350   -0.1816 C   0  0  0  0  0  0  0  0  0  0  0  0
   -0.6973    0.1567   -0.2336 C   0  0  0  0  0  0  0  0  0  0  0  0
   -0.2489   -1.1537   -0.0415 C   0  0  0  0  0  0  0  0  0  0  0  0
    1.1066   -1.4053    0.2048 C   0  0  0  0  0  0  0  0  0  0  0  0
    2.0103   -0.3404    0.2580 C   0  0  0  0  0  0  0  0  0  0  0  0
    1.5657    0.9715    0.0665 C   0  0  0  0  0  0  0  0  0  0  0  0
    1.5644   -2.7068    0.3976 O   0  0  0  0  0  0  0  0  0  0  0  0
   -0.2494    2.5860   -0.3785 N   0  0  0  0  0  4  0  0  0  0  0  0
    0.6370    3.6375   -0.3270 O   0  0  0  0  0  1  0  0  0  0  0  0
   -1.4547    2.8258   -0.5990 O   0  0  0  0  0  0  0  0  0  0  0  0
   -1.7495    0.3264   -0.4225 H   0  0  0  0  0  0  0  0  0  0  0  0
   -0.9560   -1.9724   -0.0845 H   0  0  0  0  0  0  0  0  0  0  0  0
    3.0592   -0.5294    0.4482 H   0  0  0  0  0  0  0  0  0  0  0  0
    2.2854    1.7785    0.1125 H   0  0  0  0  0  0  0  0  0  0  0  0
    0.9344   -3.4999    0.3651 H   0  0  0  0  0  0  0  0  0  0  0  0
  1  2  2  0
  2  3  1  0
  3  4  2  0
  4  5  1  0
  1  6  1  0
  5  6  2  0
  4  7  1  0
  1  8  1  0
  8  9  1  0
  8 10  2  0
  2 11  1  0
  3 12  1  0
  5 13  1  0
  6 14  1  0
  7 15  1  0
M  CHG  2   8   1   9  -1
M  END
