7Q25_8J9_B_702
     RDKit          3D

 33 34  0  0  0  0  0  0  0  0999 V2000
  -40.1911   95.3052  -15.6474 C   0  0  0  0  0  0  0  0  0  0  0  0
  -40.6758   94.9962  -13.2737 C   0  0  0  0  0  0  0  0  0  0  0  0
  -40.9291   94.6370  -14.6771 C   0  0  0  0  0  0  0  0  0  0  0  0
  -40.3574   95.0540  -16.9752 C   0  0  0  0  0  0  0  0  0  0  0  0
  -41.2809   94.1140  -17.3586 C   0  0  0  0  0  0  0  0  0  0  0  0
  -42.0170   93.4478  -16.3859 C   0  0  0  0  0  0  0  0  0  0  0  0
  -41.8537   93.6972  -15.0352 C   0  0  0  0  0  0  0  0  0  0  0  0
  -40.6908   94.2030   -8.5462 C   0  0  2  0  0  0  0  0  0  0  0  0
  -40.9543   95.1074   -7.4282 C   0  0  0  0  0  0  0  0  0  0  0  0
  -41.4630   92.9169   -8.3172 C   0  0  0  0  0  0  0  0  0  0  0  0
  -35.1621   96.4964   -6.2490 C   0  0  0  0  0  0  0  0  0  0  0  0
  -35.4287   95.8826   -7.6026 C   0  0  0  0  0  0  0  0  0  0  0  0
  -36.9578   95.9296   -7.8012 C   0  0  0  0  0  0  0  0  0  0  0  0
  -37.2275   95.1731   -9.0515 C   0  0  0  0  0  0  0  0  0  0  0  0
  -38.7083   95.1522   -9.3859 C   0  0  1  0  0  0  0  0  0  0  0  0
  -38.8521   94.9925  -10.8508 C   0  0  0  0  0  0  0  0  0  0  0  0
  -39.3055   95.6509  -13.1621 C   0  0  1  0  0  0  0  0  0  0  0  0
  -39.3499   96.8753  -13.9840 C   0  0  0  0  0  0  0  0  0  0  0  0
  -42.0640   92.3804   -9.5966 C   0  0  0  0  0  0  0  0  0  0  0  0
  -42.0120   90.8978   -9.4849 C   0  0  0  0  0  0  0  0  0  0  0  0
  -41.9626   90.0620  -10.5810 C   0  0  0  0  0  0  0  0  0  0  0  0
  -41.9152   88.6858  -10.4160 C   0  0  0  0  0  0  0  0  0  0  0  0
  -41.9178   88.1488   -9.1354 C   0  0  0  0  0  0  0  0  0  0  0  0
  -41.9679   88.9985   -8.0295 C   0  0  0  0  0  0  0  0  0  0  0  0
  -42.0150   90.3715   -8.2049 C   0  0  0  0  0  0  0  0  0  0  0  0
  -39.1151   96.0163  -11.7761 N   0  0  0  0  0  0  0  0  0  0  0  0
  -39.2879   93.9704   -8.7134 N   0  0  0  0  0  0  0  0  0  0  0  0
  -40.0940   97.8119  -13.5729 O   0  0  0  0  0  0  0  0  0  0  0  0
  -38.6598   97.0932  -15.1506 O   0  0  0  0  0  0  0  0  0  0  0  0
  -41.4957   93.8133  -18.7131 O   0  0  0  0  0  0  0  0  0  0  0  0
  -38.7314   93.8165  -11.3059 O   0  0  0  0  0  0  0  0  0  0  0  0
  -40.3005   95.2115   -6.3716 O   0  0  0  0  0  0  0  0  0  0  0  0
  -42.0692   95.9617   -7.5450 O   0  0  0  0  0  0  0  0  0  0  0  0
  1  3  2  0
  2  3  1  0
  1  4  1  0
  4  5  2  0
  5  6  1  0
  6  7  2  0
  3  7  1  0
  8  9  1  0
  8 10  1  1
 11 12  1  0
 12 13  1  0
 13 14  1  0
 15 14  1  6
 15 16  1  0
 17  2  1  1
 17 18  1  0
 10 19  1  0
 19 20  1  0
 20 21  2  0
 21 22  1  0
 22 23  2  0
 23 24  1  0
 24 25  2  0
 20 25  1  0
 16 26  1  0
 17 26  1  0
 15 27  1  0
  8 27  1  0
 18 28  2  0
 18 29  1  0
  5 30  1  0
 16 31  2  0
  9 32  2  0
  9 33  1  0
M  END
$$$$
