7JGW_V9S_A_301
     RDKit          3D

 45 50  0  0  0  0  0  0  0  0999 V2000
  -17.5195    0.1511   10.8373 S   0  0  0  0  0  0  0  0  0  0  0  0
  -21.9903    2.0497    9.8372 C   0  0  0  0  0  0  0  0  0  0  0  0
  -23.6730    3.5312   10.7181 C   0  0  0  0  0  0  0  0  0  0  0  0
  -14.7733    8.8801   13.8160 C   0  0  0  0  0  0  0  0  0  0  0  0
  -19.9369    8.4171    8.5894 O   0  0  0  0  0  0  0  0  0  0  0  0
  -19.0877    8.2804    9.6609 C   0  0  0  0  0  0  0  0  0  0  0  0
  -18.2195    9.1960    9.8280 O   0  0  0  0  0  0  0  0  0  0  0  0
  -19.1777    7.1405   10.5621 C   0  0  0  0  0  0  0  0  0  0  0  0
  -18.2944    7.0493   11.6531 C   0  0  0  0  0  0  0  0  0  0  0  0
  -17.3980    8.0510   11.7980 O   0  0  0  0  0  0  0  0  0  0  0  0
  -16.3071    8.3824   11.0086 C   0  0  0  0  0  0  0  0  0  0  0  0
  -15.4562    9.5222   11.4987 C   0  0  0  0  0  0  0  0  0  0  0  0
  -14.4866    8.9017   12.4772 C   0  0  0  0  0  0  0  0  0  0  0  0
  -13.3234    8.3561   11.9848 C   0  0  0  0  0  0  0  0  0  0  0  0
  -12.4073    7.7674   12.8377 C   0  0  0  0  0  0  0  0  0  0  0  0
  -12.7230    7.7592   14.1905 C   0  0  0  0  0  0  0  0  0  0  0  0
  -13.8811    8.3003   14.6966 C   0  0  0  0  0  0  0  0  0  0  0  0
  -18.4588    5.9427   12.4459 C   0  0  0  0  0  0  0  0  0  0  0  0
  -19.4251    4.9838   12.1920 C   0  0  0  0  0  0  0  0  0  0  0  0
  -20.1096    6.2023   10.3301 N   0  0  0  0  0  0  0  0  0  0  0  0
  -20.2689    5.1182   11.1107 C   0  0  0  0  0  0  0  0  0  0  0  0
  -21.3342    4.1692   10.8029 C   0  0  0  0  0  0  0  0  0  0  0  0
  -22.6698    4.4267   11.0571 C   0  0  0  0  0  0  0  0  0  0  0  0
  -23.2984    2.3544   10.1091 C   0  0  0  0  0  0  0  0  0  0  0  0
  -24.3061    1.3313    9.6519 C   0  0  0  0  0  0  0  0  0  0  0  0
  -23.8896    0.8527    8.2596 C   0  0  0  0  0  0  0  0  0  0  0  0
  -22.5947    0.0666    8.3478 C   0  0  0  0  0  0  0  0  0  0  0  0
  -21.0367    2.9782   10.1972 C   0  0  0  0  0  0  0  0  0  0  0  0
  -21.5810    0.7711    9.1666 C   0  0  0  0  0  0  0  0  0  0  0  0
  -20.4142    0.4190    9.4004 N   0  0  0  0  0  0  0  0  0  0  0  0
  -19.4700   -0.3055    8.7792 N   0  0  0  0  0  0  0  0  0  0  0  0
  -18.1165   -0.5718    9.1798 C   0  0  0  0  0  0  0  0  0  0  0  0
  -17.1406   -1.1144    8.8494 N   0  0  0  0  0  0  0  0  0  0  0  0
  -15.8961   -0.5483   10.6442 C   0  0  0  0  0  0  0  0  0  0  0  0
  -15.9666   -1.2223    9.4116 C   0  0  0  0  0  0  0  0  0  0  0  0
  -14.7984   -1.9599    8.8714 C   0  0  0  0  0  0  0  0  0  0  0  0
  -14.9028   -2.6088    7.8042 O   0  0  0  0  0  0  0  0  0  0  0  0
  -13.5556   -1.9562    9.5253 N   0  0  0  0  0  0  0  0  0  0  0  0
  -12.3553   -2.6050    9.1092 C   0  0  0  0  0  0  0  0  0  0  0  0
  -12.2771   -3.9423    9.7424 C   0  0  0  0  0  0  0  0  0  0  0  0
  -11.1238   -4.6899    9.5482 C   0  0  0  0  0  0  0  0  0  0  0  0
  -10.9673   -5.9463   10.1191 C   0  0  0  0  0  0  0  0  0  0  0  0
  -13.2660   -4.4887   10.5229 C   0  0  0  0  0  0  0  0  0  0  0  0
  -13.0985   -5.7319   11.0815 C   0  0  0  0  0  0  0  0  0  0  0  0
  -11.9621   -6.4922   10.9025 C   0  0  0  0  0  0  0  0  0  0  0  0
  5  6  1  0
  6  7  2  0
  6  8  1  0
  8  9  2  0
  9 10  1  0
 10 11  1  0
 11 12  1  0
  4 13  2  0
 12 13  1  0
 13 14  1  0
 14 15  2  0
 15 16  1  0
 16 17  2  0
  4 17  1  0
  9 18  1  0
 18 19  2  0
  8 20  1  0
 19 21  1  0
 20 21  2  0
 21 22  1  0
 22 23  1  0
  3 23  2  0
  2 24  2  0
  3 24  1  0
 24 25  1  0
 25 26  1  0
 26 27  1  0
 22 28  2  0
  2 28  1  0
  2 29  1  0
 27 29  1  0
 29 30  2  0
 30 31  1  0
  1 32  1  0
 31 32  1  0
 32 33  2  0
  1 34  1  0
 34 35  2  0
 33 35  1  0
 35 36  1  0
 36 37  2  0
 36 38  1  0
 38 39  1  0
 39 40  1  0
 40 41  2  0
 41 42  1  0
 40 43  1  0
 43 44  2  0
 42 45  2  0
 44 45  1  0
M  END
$$$$
