7TB0_UD1_A_501
     RDKit          3D

 39 41  0  0  0  0  0  0  0  0999 V2000
   13.6874   -2.6527   91.2671 C   0  0  1  0  0  0  0  0  0  0  0  0
   13.1407   -2.1670   92.5429 C   0  0  1  0  0  0  0  0  0  0  0  0
   11.7539   -2.6956   92.7461 C   0  0  2  0  0  0  0  0  0  0  0  0
   11.4041   -3.9300   91.9641 C   0  0  1  0  0  0  0  0  0  0  0  0
   11.8864   -3.8701   90.5475 C   0  0  1  0  0  0  0  0  0  0  0  0
   10.7817   -3.8838   89.5362 C   0  0  0  0  0  0  0  0  0  0  0  0
   14.9514   -2.0237   94.3032 C   0  0  0  0  0  0  0  0  0  0  0  0
   15.4586   -0.8313   93.5358 C   0  0  0  0  0  0  0  0  0  0  0  0
   13.8998   -2.7540   93.6795 N   0  0  0  0  0  0  0  0  0  0  0  0
   14.4613   -3.7834   91.3100 O   0  0  0  0  0  0  0  0  0  0  0  0
   10.8744   -1.6335   92.4191 O   0  0  0  0  0  0  0  0  0  0  0  0
   11.9094   -5.0282   92.6477 O   0  0  0  0  0  0  0  0  0  0  0  0
   12.6600   -2.7196   90.3313 O   0  0  0  0  0  0  0  0  0  0  0  0
   11.2861   -3.8435   88.2298 O   0  0  0  0  0  0  0  0  0  0  0  0
   15.4389   -2.3413   95.4233 O   0  0  0  0  0  0  0  0  0  0  0  0
   22.1483   -4.1230   86.2198 N   0  0  0  0  0  0  0  0  0  0  0  0
   23.2763   -4.5794   85.6576 C   0  0  0  0  0  0  0  0  0  0  0  0
   24.0657   -5.5108   86.2081 N   0  0  0  0  0  0  0  0  0  0  0  0
   23.6810   -6.0062   87.4018 C   0  0  0  0  0  0  0  0  0  0  0  0
   22.5413   -5.6036   88.0599 C   0  0  0  0  0  0  0  0  0  0  0  0
   21.7673   -4.6308   87.4301 C   0  0  0  0  0  0  0  0  0  0  0  0
   23.6373   -4.1175   84.5422 O   0  0  0  0  0  0  0  0  0  0  0  0
   24.4055   -6.8800   87.9308 O   0  0  0  0  0  0  0  0  0  0  0  0
   21.3094   -3.1034   85.5941 C   0  0  1  0  0  0  0  0  0  0  0  0
   20.2189   -3.6599   84.7470 C   0  0  2  0  0  0  0  0  0  0  0  0
   20.5127   -3.6301   83.3811 O   0  0  0  0  0  0  0  0  0  0  0  0
   19.0941   -2.6729   84.9685 C   0  0  1  0  0  0  0  0  0  0  0  0
   19.4561   -2.0567   86.2742 C   0  0  2  0  0  0  0  0  0  0  0  0
   20.7418   -2.3631   86.6115 O   0  0  0  0  0  0  0  0  0  0  0  0
   19.0596   -1.7597   83.9232 O   0  0  0  0  0  0  0  0  0  0  0  0
   18.4340   -2.5608   87.2988 C   0  0  0  0  0  0  0  0  0  0  0  0
   19.0286   -2.6712   88.5524 O   0  0  0  0  0  0  0  0  0  0  0  0
   17.9792   -3.3458   89.6887 P   0  0  2  0  0  0  0  0  0  0  0  0
   18.4226   -2.8115   91.0417 O   0  0  0  0  0  0  0  0  0  0  0  0
   18.2045   -5.0366   89.7443 O   0  0  0  0  0  0  0  0  0  0  0  0
   16.3824   -2.9136   89.4809 O   0  0  0  0  0  0  0  0  0  0  0  0
   15.2858   -4.1394   89.9053 P   0  0  1  0  0  0  0  0  0  0  0  0
   15.9181   -5.5100   89.8844 O   0  0  0  0  0  0  0  0  0  0  0  0
   14.1284   -4.1855   88.6458 O   0  0  0  0  0  0  0  0  0  0  0  0
  1  2  1  0
  2  3  1  0
  3  4  1  0
  4  5  1  0
  5  6  1  6
  7  8  1  0
  2  9  1  1
  7  9  1  0
  1 10  1  1
  3 11  1  6
  4 12  1  1
  1 13  1  0
  5 13  1  0
  6 14  1  0
  7 15  2  0
 16 17  1  0
 17 18  1  0
 18 19  1  0
 19 20  1  0
 16 21  1  0
 20 21  2  0
 17 22  2  0
 19 23  2  0
 24 16  1  1
 24 25  1  0
 25 26  1  6
 25 27  1  0
 27 28  1  0
 24 29  1  0
 28 29  1  0
 27 30  1  6
 28 31  1  1
 31 32  1  0
 32 33  1  0
 33 34  2  0
 33 35  1  1
 33 36  1  0
 10 37  1  0
 36 37  1  0
 37 38  2  0
 37 39  1  6
M  END
$$$$
