7ELT_TYM_A_401
     RDKit          3D

 37 41  0  0  0  0  0  0  0  0999 V2000
   12.0410   45.6500   16.0600 P   0  0  2  0  0  0  0  0  0  0  0  0
   12.8650   44.6340   16.8140 O   0  0  0  0  0  0  0  0  0  0  0  0
   10.6460   46.0110   16.5120 O   0  0  0  0  0  0  0  0  0  0  0  0
   12.0060   45.2620   14.5610 O   0  0  0  0  0  0  0  0  0  0  0  0
   13.1010   44.7480   13.9020 C   0  0  0  0  0  0  0  0  0  0  0  0
   13.0610   44.9500   12.4080 C   0  0  1  0  0  0  0  0  0  0  0  0
   11.9210   44.3360   11.8620 O   0  0  0  0  0  0  0  0  0  0  0  0
   11.1320   45.2590   11.1930 C   0  0  1  0  0  0  0  0  0  0  0  0
    9.7050   44.9180   11.2870 N   0  0  0  0  0  0  0  0  0  0  0  0
    8.8660   44.8050   10.3020 C   0  0  0  0  0  0  0  0  0  0  0  0
    8.8900   44.8980    8.9670 N   0  0  0  0  0  0  0  0  0  0  0  0
    7.8150   44.7460    8.2500 C   0  0  0  0  0  0  0  0  0  0  0  0
    6.6680   44.4040    8.7570 N   0  0  0  0  0  0  0  0  0  0  0  0
    6.4520   44.2790   10.0430 C   0  0  0  0  0  0  0  0  0  0  0  0
    5.2570   43.9490   10.4980 N   0  0  0  0  0  0  0  0  0  0  0  0
    7.5920   44.4800   10.9210 C   0  0  0  0  0  0  0  0  0  0  0  0
    7.7870   44.4330   12.2080 N   0  0  0  0  0  0  0  0  0  0  0  0
    9.0560   44.7010   12.4170 C   0  0  0  0  0  0  0  0  0  0  0  0
   11.5060   46.6480   11.7390 C   0  0  2  0  0  0  0  0  0  0  0  0
   11.2510   47.7240   10.8680 O   0  0  0  0  0  0  0  0  0  0  0  0
   12.9890   46.4380   12.0140 C   0  0  2  0  0  0  0  0  0  0  0  0
   13.7510   46.7670   10.8720 O   0  0  0  0  0  0  0  0  0  0  0  0
   14.2100   50.0460   17.3930 N   0  0  0  0  0  0  0  0  0  0  0  0
   14.3070   48.9140   16.4930 C   0  0  1  0  0  0  0  0  0  0  0  0
   15.6430   48.2430   16.6650 C   0  0  0  0  0  0  0  0  0  0  0  0
   16.8630   49.0950   16.5750 C   0  0  0  0  0  0  0  0  0  0  0  0
   17.4970   49.4720   15.3320 C   0  0  0  0  0  0  0  0  0  0  0  0
   18.6790   50.2260   15.7100 C   0  0  0  0  0  0  0  0  0  0  0  0
   17.1830   49.2350   14.0280 C   0  0  0  0  0  0  0  0  0  0  0  0
   17.6890   49.6110   17.5460 C   0  0  0  0  0  0  0  0  0  0  0  0
   18.7160   50.2590   17.0080 N   0  0  0  0  0  0  0  0  0  0  0  0
   19.4360   50.7340   14.6830 C   0  0  0  0  0  0  0  0  0  0  0  0
   17.9950   49.7690   13.0510 C   0  0  0  0  0  0  0  0  0  0  0  0
   19.1030   50.5010   13.3830 C   0  0  0  0  0  0  0  0  0  0  0  0
   13.2600   47.9010   16.8430 C   0  0  0  0  0  0  0  0  0  0  0  0
   12.7390   47.8660   17.8700 O   0  0  0  0  0  0  0  0  0  0  0  0
   12.8810   46.9640   15.8760 O   0  0  0  0  0  0  0  0  0  0  0  0
  1  2  1  1
  1  3  2  0
  1  4  1  0
  4  5  1  0
  6  5  1  1
  6  7  1  0
  7  8  1  0
  8  9  1  1
  9 10  1  0
 10 11  2  0
 11 12  1  0
 12 13  2  0
 13 14  1  0
 14 15  1  0
 10 16  1  0
 14 16  2  0
 16 17  1  0
  9 18  1  0
 17 18  2  0
  8 19  1  0
 19 20  1  6
  6 21  1  0
 19 21  1  0
 21 22  1  6
 24 23  1  1
 24 25  1  0
 25 26  1  0
 26 27  1  0
 27 28  1  0
 27 29  2  0
 26 30  2  0
 28 31  1  0
 30 31  1  0
 28 32  2  0
 29 33  1  0
 32 34  1  0
 33 34  2  0
 24 35  1  0
 35 36  2  0
  1 37  1  0
 35 37  1  0
M  END
$$$$
