7R3D_APR_BBB_401
     RDKit          3D

 36 39  0  0  0  0  0  0  0  0999 V2000
   -2.7884   24.3445  -31.7257 N   0  0  0  0  0  0  0  0  0  0  0  0
   -3.2006   24.0413  -30.4881 C   0  0  0  0  0  0  0  0  0  0  0  0
   -2.8237   23.0490  -29.6911 N   0  0  0  0  0  0  0  0  0  0  0  0
   -1.9022   22.2816  -30.2948 C   0  0  0  0  0  0  0  0  0  0  0  0
   -1.3728   22.4634  -31.5561 C   0  0  0  0  0  0  0  0  0  0  0  0
   -1.8414   23.5592  -32.2967 C   0  0  0  0  0  0  0  0  0  0  0  0
   -1.4065   23.8712  -33.5123 N   0  0  0  0  0  0  0  0  0  0  0  0
   -0.4499   21.4628  -31.8261 N   0  0  0  0  0  0  0  0  0  0  0  0
   -0.4399   20.7109  -30.7563 C   0  0  0  0  0  0  0  0  0  0  0  0
   -1.2939   21.1659  -29.7945 N   0  0  0  0  0  0  0  0  0  0  0  0
   -1.5101   20.5912  -28.4858 C   0  0  1  0  0  0  0  0  0  0  0  0
   -1.8506   19.1113  -28.4987 C   0  0  2  0  0  0  0  0  0  0  0  0
   -3.2217   18.9836  -28.8058 O   0  0  0  0  0  0  0  0  0  0  0  0
   -1.4380   18.7081  -27.0823 C   0  0  2  0  0  0  0  0  0  0  0  0
   -2.4544   19.0066  -26.1339 O   0  0  0  0  0  0  0  0  0  0  0  0
   -0.3029   20.6779  -27.7727 O   0  0  0  0  0  0  0  0  0  0  0  0
   -0.2141   19.5923  -26.8104 C   0  0  2  0  0  0  0  0  0  0  0  0
    1.1219   18.9136  -26.9518 C   0  0  0  0  0  0  0  0  0  0  0  0
    1.2342   18.3870  -28.3092 O   0  0  0  0  0  0  0  0  0  0  0  0
    2.6697   18.0603  -28.8981 P   0  0  2  0  0  0  0  0  0  0  0  0
    2.6601   18.3208  -30.3661 O   0  0  0  0  0  0  0  0  0  0  0  0
    3.1539   16.7203  -28.4298 O   0  0  0  0  0  0  0  0  0  0  0  0
    3.5150   19.1543  -28.0851 O   0  0  0  0  0  0  0  0  0  0  0  0
    5.0632   19.3112  -27.7285 P   0  0  1  0  0  0  0  0  0  0  0  0
    5.8016   19.9274  -28.8841 O   0  0  0  0  0  0  0  0  0  0  0  0
    5.1443   19.9726  -26.3857 O   0  0  0  0  0  0  0  0  0  0  0  0
    5.5785   17.8265  -27.5994 O   0  0  0  0  0  0  0  0  0  0  0  0
    4.7109   16.7904  -27.1003 C   0  0  0  0  0  0  0  0  0  0  0  0
    6.3489   15.5355  -25.8740 O   0  0  0  0  0  0  0  0  0  0  0  0
    6.1673   14.8385  -23.6703 O   0  0  0  0  0  0  0  0  0  0  0  0
    6.0848   14.4467  -25.0171 C   0  0  1  0  0  0  0  0  0  0  0  0
    4.4179   12.6375  -25.0894 O   0  0  0  0  0  0  0  0  0  0  0  0
    4.6781   13.9890  -25.4014 C   0  0  2  0  0  0  0  0  0  0  0  0
    5.1466   13.1820  -27.6917 O   0  0  0  0  0  0  0  0  0  0  0  0
    4.6252   14.2455  -26.9057 C   0  0  2  0  0  0  0  0  0  0  0  0
    5.4892   15.5059  -27.0349 C   0  0  1  0  0  0  0  0  0  0  0  0
  1  2  2  0
  2  3  1  0
  3  4  2  0
  4  5  1  0
  1  6  1  0
  5  6  2  0
  6  7  1  0
  5  8  1  0
  8  9  2  0
  4 10  1  0
  9 10  1  0
 11 10  1  6
 11 12  1  0
 12 13  1  1
 12 14  1  0
 14 15  1  1
 11 16  1  0
 14 17  1  0
 16 17  1  0
 17 18  1  6
 18 19  1  0
 19 20  1  0
 20 21  2  0
 20 22  1  6
 20 23  1  0
 23 24  1  0
 24 25  2  0
 24 26  1  1
 24 27  1  0
 27 28  1  0
 29 31  1  0
 31 30  1  1
 31 33  1  0
 33 32  1  6
 33 35  1  0
 35 34  1  6
 36 28  1  1
 29 36  1  0
 35 36  1  0
M  END
