8C3N_ADP_A_401
     RDKit          3D

 27 29  0  0  0  0  0  0  0  0999 V2000
   19.4526  -38.5188  -48.1343 P   0  0  2  0  0  0  0  0  0  0  0  0
   20.5285  -39.5819  -48.1963 O   0  0  0  0  0  0  0  0  0  0  0  0
   20.0237  -37.1172  -47.3722 O   0  0  0  0  0  0  0  0  0  0  0  0
   18.1128  -39.0610  -47.2612 O   0  0  0  0  0  0  0  0  0  0  0  0
   20.2489  -37.3423  -50.4937 P   0  0  1  0  0  0  0  0  0  0  0  0
   20.6472  -36.1220  -49.6951 O   0  0  0  0  0  0  0  0  0  0  0  0
   21.5371  -38.4090  -50.5258 O   0  0  0  0  0  0  0  0  0  0  0  0
   18.9540  -38.0455  -49.6803 O   0  0  0  0  0  0  0  0  0  0  0  0
   19.8168  -36.7998  -52.0281 O   0  0  0  0  0  0  0  0  0  0  0  0
   19.0307  -37.6897  -52.7177 C   0  0  0  0  0  0  0  0  0  0  0  0
   19.7733  -38.5100  -53.7360 C   0  0  1  0  0  0  0  0  0  0  0  0
   21.1107  -38.7049  -53.3929 O   0  0  0  0  0  0  0  0  0  0  0  0
   19.1941  -39.8696  -53.9426 C   0  0  1  0  0  0  0  0  0  0  0  0
   18.4499  -39.9007  -55.1112 O   0  0  0  0  0  0  0  0  0  0  0  0
   20.4563  -40.6970  -54.2085 C   0  0  1  0  0  0  0  0  0  0  0  0
   20.2837  -41.5032  -55.3223 O   0  0  0  0  0  0  0  0  0  0  0  0
   21.4741  -39.5938  -54.4147 C   0  0  2  0  0  0  0  0  0  0  0  0
   22.8249  -40.0463  -54.2959 N   0  0  0  0  0  0  0  0  0  0  0  0
   23.5076  -40.2831  -53.1522 C   0  0  0  0  0  0  0  0  0  0  0  0
   24.7591  -40.6992  -53.4561 N   0  0  0  0  0  0  0  0  0  0  0  0
   24.8557  -40.7213  -54.8062 C   0  0  0  0  0  0  0  0  0  0  0  0
   25.9298  -41.0744  -55.5967 C   0  0  0  0  0  0  0  0  0  0  0  0
   27.1594  -41.4898  -55.0177 N   0  0  0  0  0  0  0  0  0  0  0  0
   25.7473  -41.0034  -56.9295 N   0  0  0  0  0  0  0  0  0  0  0  0
   24.5850  -40.6109  -57.4612 C   0  0  0  0  0  0  0  0  0  0  0  0
   23.5510  -40.2712  -56.6703 N   0  0  0  0  0  0  0  0  0  0  0  0
   23.6398  -40.3109  -55.3288 C   0  0  0  0  0  0  0  0  0  0  0  0
  1  2  2  0
  1  3  1  1
  1  4  1  0
  5  6  2  0
  5  7  1  6
  1  8  1  0
  5  8  1  0
  5  9  1  0
  9 10  1  0
 11 10  1  1
 11 12  1  0
 11 13  1  0
 13 14  1  6
 13 15  1  0
 15 16  1  6
 12 17  1  0
 15 17  1  0
 17 18  1  1
 18 19  1  0
 19 20  2  0
 20 21  1  0
 21 22  2  0
 22 23  1  0
 22 24  1  0
 24 25  2  0
 25 26  1  0
 18 27  1  0
 21 27  1  0
 26 27  2  0
M  END
$$$$
