1TOW_CRZ_A_501
     RDKit          3D

 34 36  0  0  0  0  0  0  0  0999 V2000
   19.4191    5.4214   -4.5077 O   0  0  0  0  0  0  0  0  0  0  0  0
   20.1819    5.9169   -3.6910 C   0  0  0  0  0  0  0  0  0  0  0  0
   20.4353    5.2377   -2.5766 O   0  0  0  0  0  0  0  0  0  0  0  0
   20.8281    7.2627   -3.9387 C   0  0  0  0  0  0  0  0  0  0  0  0
   20.8630    8.1356   -2.6691 C   0  0  0  0  0  0  0  0  0  0  0  0
   22.1067    7.8899   -1.7954 C   0  0  0  0  0  0  0  0  0  0  0  0
   22.3529    6.4644   -1.5278 N   0  0  0  0  0  4  0  0  0  0  0  0
   21.5228    5.4427   -1.9241 C   0  0  0  0  0  0  0  0  0  0  0  0
   20.3415    5.3449   -2.6614 C   0  0  0  0  0  0  0  0  0  0  0  0
   22.1083    4.1792   -1.4221 C   0  0  0  0  0  0  0  0  0  0  0  0
   21.5365    2.9326   -1.6400 C   0  0  0  0  0  0  0  0  0  0  0  0
   20.3540    2.9001   -2.3921 C   0  0  0  0  0  0  0  0  0  0  0  0
   19.7705    4.0799   -2.8832 C   0  0  0  0  0  0  0  0  0  0  0  0
   23.3106    4.5453   -0.6990 C   0  0  0  0  0  0  0  0  0  0  0  0
   23.4205    6.0144   -0.7976 C   0  0  0  0  0  0  0  0  0  0  0  0
   24.5219    6.6161   -0.1780 C   0  0  0  0  0  0  0  0  0  0  0  0
   24.2347    3.7480   -0.0232 C   0  0  0  0  0  0  0  0  0  0  0  0
   25.3066    4.4128    0.5841 C   0  0  0  0  0  0  0  0  0  0  0  0
   25.4391    5.8065    0.5021 C   0  0  0  0  0  0  0  0  0  0  0  0
   19.2223    5.8778   -5.3021 H   0  0  0  0  0  0  0  0  0  0  0  0
   20.2732    7.7772   -4.6951 H   0  0  0  0  0  0  0  0  0  0  0  0
   21.8384    7.0899   -4.2457 H   0  0  0  0  0  0  0  0  0  0  0  0
   19.9912    7.9227   -2.0865 H   0  0  0  0  0  0  0  0  0  0  0  0
   20.8958    9.1566   -2.9873 H   0  0  0  0  0  0  0  0  0  0  0  0
   21.9710    8.3930   -0.8609 H   0  0  0  0  0  0  0  0  0  0  0  0
   22.9528    8.2638   -2.3332 H   0  0  0  0  0  0  0  0  0  0  0  0
   19.8918    6.1932   -3.0399 H   0  0  0  0  0  0  0  0  0  0  0  0
   21.9623    2.0703   -1.2656 H   0  0  0  0  0  0  0  0  0  0  0  0
   19.9037    1.9926   -2.5888 H   0  0  0  0  0  0  0  0  0  0  0  0
   18.8942    4.0156   -3.4245 H   0  0  0  0  0  0  0  0  0  0  0  0
   24.6554    7.6385   -0.2217 H   0  0  0  0  0  0  0  0  0  0  0  0
   24.1334    2.7221    0.0264 H   0  0  0  0  0  0  0  0  0  0  0  0
   26.0128    3.8669    1.1020 H   0  0  0  0  0  0  0  0  0  0  0  0
   26.2470    6.2541    0.9625 H   0  0  0  0  0  0  0  0  0  0  0  0
  1  2  1  0
  2  3  2  0
  2  4  1  0
  4  5  1  0
  5  6  1  0
  6  7  1  0
  7  8  4  0
  8  9  4  0
  8 10  4  0
 10 11  4  0
 11 12  4  0
  9 13  4  0
 12 13  4  0
 10 14  4  0
  7 15  4  0
 14 15  4  0
 15 16  4  0
 14 17  4  0
 17 18  4  0
 16 19  4  0
 18 19  4  0
  1 20  1  0
  4 21  1  0
  4 22  1  0
  5 23  1  0
  5 24  1  0
  6 25  1  0
  6 26  1  0
  9 27  1  0
 11 28  1  0
 12 29  1  0
 13 30  1  0
 16 31  1  0
 17 32  1  0
 18 33  1  0
 19 34  1  0
M  CHG  1   7   1
M  END
