7NB4_U6Q_A_401
     RDKit          3D

 53 56  0  0  0  0  0  0  0  0999 V2000
    8.7370    4.4657   -8.1213 C   0  0  0  0  0  0  0  0  0  0  0  0
    7.7653    4.2209   -9.1769 C   0  0  0  0  0  0  0  0  0  0  0  0
    6.6790    3.2722   -8.7860 C   0  0  0  0  0  0  0  0  0  0  0  0
    6.3138    2.8690   -7.5455 C   0  0  0  0  0  0  0  0  0  0  0  0
    5.1229    1.9880   -7.5577 C   0  0  0  0  0  0  0  0  0  0  0  0
    4.6836    1.8041   -8.8509 C   0  0  0  0  0  0  0  0  0  0  0  0
    5.6521    2.6366  -10.0102 S   0  0  0  0  0  0  0  0  0  0  0  0
    3.6183    1.0500   -9.1515 N   0  0  0  0  0  0  0  0  0  0  0  0
    2.9984    0.4630   -8.1267 C   0  0  0  0  0  0  0  0  0  0  0  0
    3.3384    0.5779   -6.8300 N   0  0  0  0  0  0  0  0  0  0  0  0
    4.4072    1.3388   -6.5023 C   0  0  0  0  0  0  0  0  0  0  0  0
    4.7564    1.4506   -5.2284 N   0  0  0  0  0  0  0  0  0  0  0  0
    4.1056    2.4324   -4.3774 C   0  0  2  0  0  0  0  0  0  0  0  0
    4.7977    2.4422   -3.0038 C   0  0  0  0  0  0  0  0  0  0  0  0
    4.9005    3.8488   -2.4512 C   0  0  0  0  0  0  0  0  0  0  0  0
    6.1343    4.4713   -2.3666 C   0  0  0  0  0  0  0  0  0  0  0  0
    6.2590    5.7340   -1.7953 C   0  0  0  0  0  0  0  0  0  0  0  0
    5.1451    6.3649   -1.2930 C   0  0  0  0  0  0  0  0  0  0  0  0
    3.9076    5.7566   -1.3573 C   0  0  0  0  0  0  0  0  0  0  0  0
    3.7857    4.4939   -1.9368 C   0  0  0  0  0  0  0  0  0  0  0  0
    2.6013    2.0891   -4.1971 C   0  0  0  0  0  0  0  0  0  0  0  0
    1.8887    2.0470   -5.2375 O   0  0  0  0  0  0  0  0  0  0  0  0
    2.2087    1.8191   -3.0285 O   0  0  0  0  0  0  0  0  0  0  0  0
    7.0791    3.2796   -6.3512 C   0  0  0  0  0  0  0  0  0  0  0  0
    7.2513    4.6357   -6.0536 C   0  0  0  0  0  0  0  0  0  0  0  0
    6.6456    5.7198   -6.9092 C   0  0  0  0  0  0  0  0  0  0  0  0
    8.0114    4.9738   -4.9462 C   0  0  0  0  0  0  0  0  0  0  0  0
    8.2468    6.6673   -4.5722 Cl  0  0  0  0  0  0  0  0  0  0  0  0
    8.5477    4.0187   -4.0986 C   0  0  0  0  0  0  0  0  0  0  0  0
    8.3758    2.6878   -4.3955 C   0  0  0  0  0  0  0  0  0  0  0  0
    7.6432    2.3166   -5.5111 C   0  0  0  0  0  0  0  0  0  0  0  0
    9.4801    5.1507   -8.4725 H   0  0  0  0  0  0  0  0  0  0  0  0
    9.2040    3.5433   -7.8456 H   0  0  0  0  0  0  0  0  0  0  0  0
    8.2411    4.8830   -7.2698 H   0  0  0  0  0  0  0  0  0  0  0  0
    8.2804    3.8148  -10.0224 H   0  0  0  0  0  0  0  0  0  0  0  0
    7.2979    5.1584   -9.3947 H   0  0  0  0  0  0  0  0  0  0  0  0
    2.1854   -0.1327   -8.3483 H   0  0  0  0  0  0  0  0  0  0  0  0
    5.4579    0.8675   -4.8582 H   0  0  0  0  0  0  0  0  0  0  0  0
    4.1819    3.3962   -4.8357 H   0  0  0  0  0  0  0  0  0  0  0  0
    5.7818    2.0348   -3.1061 H   0  0  0  0  0  0  0  0  0  0  0  0
    4.2141    1.8542   -2.3265 H   0  0  0  0  0  0  0  0  0  0  0  0
    6.9723    3.9926   -2.7320 H   0  0  0  0  0  0  0  0  0  0  0  0
    7.1816    6.1941   -1.7488 H   0  0  0  0  0  0  0  0  0  0  0  0
    5.2350    7.2996   -0.8649 H   0  0  0  0  0  0  0  0  0  0  0  0
    3.0755    6.2346   -0.9779 H   0  0  0  0  0  0  0  0  0  0  0  0
    2.8613    4.0372   -1.9831 H   0  0  0  0  0  0  0  0  0  0  0  0
    2.8059    1.8760   -2.3087 H   0  0  0  0  0  0  0  0  0  0  0  0
    6.0967    5.2751   -7.7129 H   0  0  0  0  0  0  0  0  0  0  0  0
    7.4240    6.3366   -7.3073 H   0  0  0  0  0  0  0  0  0  0  0  0
    5.9864    6.3170   -6.3145 H   0  0  0  0  0  0  0  0  0  0  0  0
    9.0697    4.3028   -3.2548 H   0  0  0  0  0  0  0  0  0  0  0  0
    8.7924    1.9653   -3.7877 H   0  0  0  0  0  0  0  0  0  0  0  0
    7.5125    1.3154   -5.7244 H   0  0  0  0  0  0  0  0  0  0  0  0
  1  2  1  0
  2  3  1  0
  3  4  4  0
  4  5  4  0
  5  6  4  0
  6  7  4  0
  3  7  4  0
  6  8  4  0
  8  9  4  0
  9 10  4  0
 10 11  4  0
  5 11  4  0
 11 12  1  0
 12 13  1  0
 13 14  1  0
 14 15  1  0
 15 16  4  0
 16 17  4  0
 17 18  4  0
 18 19  4  0
 15 20  4  0
 19 20  4  0
 13 21  1  0
 21 22  2  0
 21 23  1  0
  4 24  1  0
 24 25  4  0
 25 26  1  0
 25 27  4  0
 27 28  1  0
 27 29  4  0
 29 30  4  0
 24 31  4  0
 30 31  4  0
  1 32  1  0
  1 33  1  0
  1 34  1  0
  2 35  1  0
  2 36  1  0
  9 37  1  0
 12 38  1  0
 13 39  1  6
 14 40  1  0
 14 41  1  0
 16 42  1  0
 17 43  1  0
 18 44  1  0
 19 45  1  0
 20 46  1  0
 23 47  1  0
 26 48  1  0
 26 49  1  0
 26 50  1  0
 29 51  1  0
 30 52  1  0
 31 53  1  0
M  END
