7OZC_G6S_AAA_601
     RDKit          3D

 28 28  0  0  0  0  0  0  0  0999 V2000
   20.2906   -3.9810   19.0567 C   0  0  2  0  0  0  0  0  0  0  0  0
   19.4356   -4.8352   18.0876 C   0  0  1  0  0  0  0  0  0  0  0  0
   18.4561   -3.9391   17.3032 C   0  0  2  0  0  0  0  0  0  0  0  0
   17.6050   -3.0501   18.2310 C   0  0  2  0  0  0  0  0  0  0  0  0
   18.6027   -2.2797   19.1322 C   0  0  1  0  0  0  0  0  0  0  0  0
   17.9023   -1.3459   20.0899 C   0  0  0  0  0  0  0  0  0  0  0  0
   21.0125   -4.8419   19.9202 O   0  0  0  0  0  0  0  0  0  0  0  0
   20.2819   -5.5448   17.2039 O   0  0  0  0  0  0  0  0  0  0  0  0
   16.6045   -3.7413   19.0509 O   0  0  0  0  0  0  0  0  0  0  0  0
   19.4499   -3.1366   19.8624 O   0  0  0  0  0  0  0  0  0  0  0  0
   16.4843   -1.5914   20.1314 O   0  0  0  0  0  0  0  0  0  0  0  0
   15.9532   -2.9577   19.5740 S   0  0  1  0  0  6  0  0  0  0  0  0
   15.5160   -2.6760   18.1924 O   0  0  0  0  0  0  0  0  0  0  0  0
   17.1599   -3.7725   19.6240 O   0  0  0  0  0  0  0  0  0  0  0  0
   14.8493   -3.4490   20.4374 O   0  0  0  0  0  0  0  0  0  0  0  0
   17.5960   -4.7265   16.4620 O   0  0  0  0  0  0  0  0  0  0  0  0
   20.9561   -3.3741   18.4790 H   0  0  0  0  0  0  0  0  0  0  0  0
   18.8616   -5.5384   18.6540 H   0  0  0  0  0  0  0  0  0  0  0  0
   19.0552   -3.2974   16.6916 H   0  0  0  0  0  0  0  0  0  0  0  0
   17.0113   -2.4133   17.6089 H   0  0  0  0  0  0  0  0  0  0  0  0
   19.2011   -1.7045   18.4571 H   0  0  0  0  0  0  0  0  0  0  0  0
   18.0706   -0.3370   19.7757 H   0  0  0  0  0  0  0  0  0  0  0  0
   18.2986   -1.5135   21.0696 H   0  0  0  0  0  0  0  0  0  0  0  0
   20.3905   -5.3814   20.4329 H   0  0  0  0  0  0  0  0  0  0  0  0
   20.8074   -4.9161   16.6849 H   0  0  0  0  0  0  0  0  0  0  0  0
   17.0504   -4.3521   19.6586 H   0  0  0  0  0  0  0  0  0  0  0  0
   14.0845   -2.8586   20.3512 H   0  0  0  0  0  0  0  0  0  0  0  0
   17.0510   -5.3099   17.0129 H   0  0  0  0  0  0  0  0  0  0  0  0
  1  2  1  0
  2  3  1  0
  3  4  1  0
  4  5  1  0
  5  6  1  0
  1  7  1  0
  2  8  1  0
  4  9  1  0
  1 10  1  0
  5 10  1  0
  6 11  1  0
 12 11  1  1
 12 13  2  0
 12 14  2  0
 12 15  1  0
  3 16  1  0
  1 17  1  6
  2 18  1  1
  3 19  1  6
  4 20  1  6
  5 21  1  6
  6 22  1  0
  6 23  1  0
  7 24  1  0
  8 25  1  0
  9 26  1  0
 15 27  1  0
 16 28  1  0
M  END
