6Z5Z_BDF_A_102
     RDKit          3D

 12 12  0  0  0  0  0  0  0  0999 V2000
   -0.2549   13.5870  -12.6137 C   0  0  0  0  0  0  0  0  0  0  0  0
    0.1007   14.1185  -11.2172 C   0  0  1  0  0  0  0  0  0  0  0  0
   -0.6955   13.4658  -10.1599 C   0  0  2  0  0  0  0  0  0  0  0  0
   -1.4984   14.3413   -9.2688 C   0  0  1  0  0  0  0  0  0  0  0  0
   -1.6527   15.7611   -9.6938 C   0  0  1  0  0  0  0  0  0  0  0  0
   -1.2004   16.0026  -11.1115 C   0  0  0  0  0  0  0  0  0  0  0  0
   -1.6613   13.5857  -12.6466 O   0  0  0  0  0  0  0  0  0  0  0  0
    1.4653   13.7512  -11.1020 O   0  0  0  0  0  0  0  0  0  0  0  0
    0.1567   12.7216   -9.3107 O   0  0  0  0  0  0  0  0  0  0  0  0
   -2.7786   13.7806   -9.1585 O   0  0  0  0  0  0  0  0  0  0  0  0
   -3.0015   16.1678   -9.6357 O   0  0  0  0  0  0  0  0  0  0  0  0
    0.0790   15.4894  -11.2217 O   0  0  0  0  0  0  0  0  0  0  0  0
  1  2  1  0
  2  3  1  0
  3  4  1  0
  4  5  1  0
  5  6  1  0
  1  7  1  0
  2  8  1  1
  3  9  1  1
  4 10  1  6
  5 11  1  6
  2 12  1  0
  6 12  1  0
M  END
$$$$
