7R59_I5F_A_602
     RDKit          3D

 18 20  0  0  0  0  0  0  0  0999 V2000
    2.1573    3.6995   10.4824 C   0  0  0  0  0  0  0  0  0  0  0  0
    3.0324    3.8130   11.5740 C   0  0  0  0  0  0  0  0  0  0  0  0
    4.2599    3.1606   11.5673 C   0  0  0  0  0  0  0  0  0  0  0  0
    1.0141    5.0765   11.9358 C   0  0  0  0  0  0  0  0  0  0  0  0
   -0.1615    4.8313   10.1331 C   0  0  0  0  0  0  0  0  0  0  0  0
   -0.0896    5.7558   12.1028 N   0  0  0  0  0  0  0  0  0  0  0  0
   -0.8283    5.6161   10.9284 N   0  0  0  0  0  0  0  0  0  0  0  0
    2.5083    2.9615    9.3606 C   0  0  0  0  0  0  0  0  0  0  0  0
    0.9889    4.4382   10.7294 N   0  0  0  0  0  0  0  0  0  0  0  0
    5.8109    1.7863   10.4401 O   0  0  0  0  0  0  0  0  0  0  0  0
    4.6148    2.4370   10.4460 C   0  0  0  0  0  0  0  0  0  0  0  0
    3.7480    2.3240    9.3464 C   0  0  0  0  0  0  0  0  0  0  0  0
    2.4123    4.7664   12.9103 S   0  0  0  0  0  0  0  0  0  0  0  0
    4.8913    3.2157   12.3816 H   0  0  0  0  0  0  0  0  0  0  0  0
   -0.4646    4.5500    9.1876 H   0  0  0  0  0  0  0  0  0  0  0  0
    1.8666    2.8864    8.5559 H   0  0  0  0  0  0  0  0  0  0  0  0
    6.3889    1.8617   11.1737 H   0  0  0  0  0  0  0  0  0  0  0  0
    4.0301    1.7669    8.5247 H   0  0  0  0  0  0  0  0  0  0  0  0
  1  2  4  0
  2  3  4  0
  4  6  4  0
  5  7  4  0
  6  7  4  0
  1  8  4  0
  5  9  4  0
  4  9  4  0
  1  9  4  0
  3 11  4  0
 10 11  1  0
  8 12  4  0
 11 12  4  0
  4 13  4  0
  2 13  4  0
  3 14  1  0
  5 15  1  0
  8 16  1  0
 10 17  1  0
 12 18  1  0
M  END
