7WY1_D0L_B_502
     RDKit          3D

 58 59  0  0  0  0  0  0  0  0999 V2000
    5.2668  -19.0118  -39.7680 C   0  0  0  0  0  0  0  0  0  0  0  0
    6.1171  -19.1308  -38.6559 C   0  0  0  0  0  0  0  0  0  0  0  0
    5.7267  -13.5719  -35.6983 C   0  0  2  0  0  0  0  0  0  0  0  0
    5.9093  -15.0629  -33.7654 C   0  0  2  0  0  0  0  0  0  0  0  0
    7.2431  -18.1479  -38.4531 C   0  0  1  0  0  0  0  0  0  0  0  0
    7.9493  -16.2265  -34.3213 C   0  0  2  0  0  0  0  0  0  0  0  0
    7.8355  -15.7199  -36.7763 C   0  0  0  0  0  0  0  0  0  0  0  0
    5.8826  -20.1491  -37.7167 C   0  0  0  0  0  0  0  0  0  0  0  0
    6.8127  -16.1946  -33.3110 C   0  0  1  0  0  0  0  0  0  0  0  0
    7.5711  -15.1962  -35.3897 C   0  0  1  0  0  0  0  0  0  0  0  0
    4.2111  -19.9112  -39.9465 C   0  0  0  0  0  0  0  0  0  0  0  0
    6.8490  -16.7243  -38.8924 C   0  0  1  0  0  0  0  0  0  0  0  0
    3.9901  -20.9271  -39.0129 C   0  0  0  0  0  0  0  0  0  0  0  0
    5.5318  -16.7311  -39.6195 C   0  0  0  0  0  0  0  0  0  0  0  0
    4.8240  -21.0447  -37.8984 C   0  0  0  0  0  0  0  0  0  0  0  0
    4.7845  -17.7435  -39.5585 O   0  0  0  0  0  0  0  0  0  0  0  0
    9.0027  -16.0841  -37.0853 O   0  0  0  0  0  0  0  0  0  0  0  0
    5.1420  -15.6274  -40.3720 O   0  0  0  0  0  0  0  0  0  0  0  0
    6.1426  -14.9034  -35.2014 N   0  0  0  0  0  0  0  0  0  0  0  0
    6.6852  -13.0824  -36.7929 C   0  0  1  0  0  0  0  0  0  0  0  0
    5.9751  -12.7229  -38.1123 C   0  0  2  0  0  0  0  0  0  0  0  0
    6.2310  -11.2717  -38.5536 C   0  0  2  0  0  0  0  0  0  0  0  0
    6.9159  -10.4395  -37.4595 C   0  0  2  0  0  0  0  0  0  0  0  0
    6.6522  -11.0015  -36.0549 C   0  0  2  0  0  0  0  0  0  0  0  0
    7.7509  -10.5868  -35.0801 C   0  0  1  0  0  0  0  0  0  0  0  0
    6.7651  -15.8405  -37.7260 N   0  0  0  0  0  0  0  0  0  0  0  0
    5.4240  -18.2253  -40.4953 H   0  0  0  0  0  0  0  0  0  0  0  0
    5.7087  -12.8139  -34.8848 H   0  0  0  0  0  0  0  0  0  0  0  0
    4.6969  -13.5913  -36.1215 H   0  0  0  0  0  0  0  0  0  0  0  0
    6.1853  -14.1362  -33.2091 H   0  0  0  0  0  0  0  0  0  0  0  0
    4.8421  -15.3078  -33.5736 H   0  0  0  0  0  0  0  0  0  0  0  0
    7.5673  -18.1449  -37.3889 H   0  0  0  0  0  0  0  0  0  0  0  0
    8.1211  -18.4801  -39.0491 H   0  0  0  0  0  0  0  0  0  0  0  0
    8.0485  -17.2543  -34.7391 H   0  0  0  0  0  0  0  0  0  0  0  0
    8.9111  -15.9484  -33.8365 H   0  0  0  0  0  0  0  0  0  0  0  0
    6.5179  -20.2483  -36.8458 H   0  0  0  0  0  0  0  0  0  0  0  0
    7.1886  -16.0197  -32.2792 H   0  0  0  0  0  0  0  0  0  0  0  0
    6.2530  -17.1557  -33.3406 H   0  0  0  0  0  0  0  0  0  0  0  0
    8.1881  -14.2846  -35.2088 H   0  0  0  0  0  0  0  0  0  0  0  0
    3.5626  -19.8194  -40.8073 H   0  0  0  0  0  0  0  0  0  0  0  0
    7.6453  -16.3389  -39.5684 H   0  0  0  0  0  0  0  0  0  0  0  0
    3.1719  -21.6217  -39.1521 H   0  0  0  0  0  0  0  0  0  0  0  0
    4.6490  -21.8289  -37.1736 H   0  0  0  0  0  0  0  0  0  0  0  0
    4.2388  -15.1923  -40.2270 H   0  0  0  0  0  0  0  0  0  0  0  0
    7.1823  -12.1636  -36.4134 H   0  0  0  0  0  0  0  0  0  0  0  0
    7.4880  -13.8297  -36.9655 H   0  0  0  0  0  0  0  0  0  0  0  0
    4.8817  -12.8521  -37.9589 H   0  0  0  0  0  0  0  0  0  0  0  0
    6.2803  -13.4316  -38.9102 H   0  0  0  0  0  0  0  0  0  0  0  0
    5.2833  -10.7788  -38.8393 H   0  0  0  0  0  0  0  0  0  0  0  0
    6.8888  -11.2808  -39.4465 H   0  0  0  0  0  0  0  0  0  0  0  0
    6.5143   -9.4026  -37.5073 H   0  0  0  0  0  0  0  0  0  0  0  0
    8.0110  -10.3847  -37.6492 H   0  0  0  0  0  0  0  0  0  0  0  0
    6.6084  -12.1112  -36.0860 H   0  0  0  0  0  0  0  0  0  0  0  0
    5.6773  -10.6207  -35.6781 H   0  0  0  0  0  0  0  0  0  0  0  0
    7.3050  -10.1279  -34.1716 H   0  0  0  0  0  0  0  0  0  0  0  0
    8.3627  -11.4666  -34.7845 H   0  0  0  0  0  0  0  0  0  0  0  0
    8.4146   -9.8405  -35.5665 H   0  0  0  0  0  0  0  0  0  0  0  0
    5.8779  -15.3187  -37.5399 H   0  0  0  0  0  0  0  0  0  0  0  0
  1  2  2  0
  2  5  1  0
  2  8  1  0
  4  9  1  0
  6  9  1  0
  6 10  1  0
 10  7  1  0
  1 11  1  0
 12  5  1  0
 11 13  2  0
 12 14  1  0
 13 15  1  0
  8 15  2  0
 14 16  2  0
  7 17  2  0
 14 18  1  0
  4 19  1  0
  3 19  1  0
 10 19  1  0
  3 20  1  0
 20 21  1  0
 21 22  1  0
 22 23  1  0
 23 24  1  0
 24 25  1  0
  7 26  1  0
 12 26  1  0
  1 27  1  0
  3 28  1  1
  3 29  1  0
  4 30  1  1
  4 31  1  0
  5 32  1  1
  5 33  1  0
  6 34  1  6
  6 35  1  0
  8 36  1  0
  9 37  1  1
  9 38  1  0
 10 39  1  1
 11 40  1  0
 12 41  1  6
 13 42  1  0
 15 43  1  0
 18 44  1  0
 20 45  1  1
 20 46  1  0
 21 47  1  1
 21 48  1  0
 22 49  1  6
 22 50  1  0
 23 51  1  1
 23 52  1  0
 24 53  1  6
 24 54  1  0
 25 55  1  1
 25 56  1  0
 25 57  1  0
 26 58  1  0
M  END
