7MFP_Z7P_D_401
     RDKit          3D

 83 86  0  0  0  0  0  0  0  0999 V2000
  -81.5911  -13.2309   21.9828 O   0  0  0  0  0  0  0  0  0  0  0  0
  -80.8094  -14.2010   21.7662 C   0  0  0  0  0  0  0  0  0  0  0  0
  -81.1303  -15.2114   20.8525 C   0  0  0  0  0  0  0  0  0  0  0  0
  -80.2356  -16.2734   20.6697 C   0  0  0  0  0  0  0  0  0  0  0  0
  -79.6374  -14.2913   22.4227 N   0  0  0  0  0  4  0  0  0  0  0  0
  -78.7996  -15.3336   22.2892 C   0  0  0  0  0  0  0  0  0  0  0  0
  -77.7495  -15.3707   22.9548 O   0  0  0  0  0  0  0  0  0  0  0  0
  -79.0866  -16.3745   21.3835 N   0  0  0  0  0  4  0  0  0  0  0  0
  -78.1711  -17.5166   21.2246 C   0  0  2  0  0  0  0  0  0  0  0  0
  -77.5172  -17.5075   19.9584 O   0  0  0  0  0  0  0  0  0  0  0  0
  -78.9930  -18.8103   21.1642 C   0  0  2  0  0  0  0  0  0  0  0  0
  -79.3801  -19.4027   22.4239 O   0  0  0  0  0  0  0  0  0  0  0  0
  -78.0943  -19.7477   20.4162 C   0  0  2  0  0  0  0  0  0  0  0  0
  -77.1303  -20.3497   21.3125 O   0  0  0  0  0  0  0  0  0  0  0  0
  -77.3010  -18.8264   19.5082 C   0  0  1  0  0  0  0  0  0  0  0  0
  -77.7329  -18.9021   18.0660 C   0  0  0  0  0  0  0  0  0  0  0  0
  -76.7670  -18.2996   17.2322 O   0  0  0  0  0  0  0  0  0  0  0  0
  -75.2191  -18.5811   17.4402 P   0  0  1  0  0  5  0  0  0  0  0  0
  -74.5362  -19.1318   16.2199 O   0  0  0  0  0  0  0  0  0  0  0  0
  -74.5176  -17.3902   17.9794 O   0  0  0  0  0  0  0  0  0  0  0  0
  -75.2418  -19.6835   18.6368 O   0  0  0  0  0  0  0  0  0  0  0  0
  -75.9406  -19.6759   20.0833 P   0  0  1  0  0  5  0  0  0  0  0  0
  -77.4559  -19.7548   19.9521 O   0  0  0  0  0  0  0  0  0  0  0  0
  -75.3168  -20.5978   21.0446 O   0  0  0  0  0  0  0  0  0  0  0  0
  -75.5248  -18.2162   20.6743 O   0  0  0  0  0  0  0  0  0  0  0  0
  -74.6076  -18.2494   21.7493 C   0  0  1  0  0  0  0  0  0  0  0  0
  -73.8168  -19.4121   21.5483 O   0  0  0  0  0  0  0  0  0  0  0  0
  -72.9650  -19.3207   20.3891 C   0  0  2  0  0  0  0  0  0  0  0  0
  -72.3681  -20.6910   20.1308 C   0  0  0  0  0  0  0  0  0  0  0  0
  -71.9426  -18.2164   20.5831 C   0  0  2  0  0  0  0  0  0  0  0  0
  -72.6256  -16.8584   20.8471 C   0  0  2  0  0  0  0  0  0  0  0  0
  -71.6308  -15.9665   21.3876 O   0  0  0  0  0  0  0  0  0  0  0  0
  -73.7588  -16.9574   21.8678 C   0  0  1  0  0  0  0  0  0  0  0  0
  -74.5885  -15.7978   21.8117 O   0  0  0  0  0  0  0  0  0  0  0  0
  -71.1081  -18.1960   19.3697 N   0  0  0  0  0  0  0  0  0  0  0  0
  -71.4757  -18.5684   18.2267 C   0  0  0  0  0  0  0  0  0  0  0  0
  -70.5660  -18.4293   17.1087 C   0  0  0  0  0  0  0  0  0  0  0  0
  -69.4546  -19.3953   16.8966 C   0  0  0  0  0  0  0  0  0  0  0  0
  -69.2448  -20.4405   17.7100 O   0  0  0  0  0  0  0  0  0  0  0  0
  -68.5468  -19.2047   15.7288 C   0  0  0  0  0  0  0  0  0  0  0  0
  -67.4427  -20.1992   15.4572 C   0  0  0  0  0  0  0  0  0  0  0  0
  -70.6589  -17.3041   16.1711 C   0  0  0  0  0  0  0  0  0  0  0  0
  -69.7321  -17.2371   15.1245 C   0  0  0  0  0  0  0  0  0  0  0  0
  -68.7582  -18.1607   14.9238 N   0  0  0  0  0  0  0  0  0  0  0  0
  -71.7376  -16.2350   16.2803 C   0  0  0  0  0  0  0  0  0  0  0  0
  -71.2566  -15.0013   15.7092 O   0  0  0  0  0  0  0  0  0  0  0  0
  -70.6923  -13.9165   16.7517 P   0  0  2  0  0  5  0  0  0  0  0  0
  -70.9854  -12.5780   16.1262 O   0  0  0  0  0  0  0  0  0  0  0  0
  -69.1584  -14.2034   16.7240 O   0  0  0  0  0  0  0  0  0  0  0  0
  -71.1928  -14.0854   18.1660 O   0  0  0  0  0  0  0  0  0  0  0  0
  -82.0140  -15.1744   20.3207 H   0  0  0  0  0  0  0  0  0  0  0  0
  -80.4570  -17.0003   19.9714 H   0  0  0  0  0  0  0  0  0  0  0  0
  -79.3820  -13.5591   23.0293 H   0  0  0  0  0  0  0  0  0  0  0  0
  -77.4782  -17.4559   22.0378 H   0  0  0  0  0  0  0  0  0  0  0  0
  -79.9408  -18.6004   20.7140 H   0  0  0  0  0  0  0  0  0  0  0  0
  -78.5857  -19.6382   22.9282 H   0  0  0  0  0  0  0  0  0  0  0  0
  -78.6505  -20.5187   19.9253 H   0  0  0  0  0  0  0  0  0  0  0  0
  -76.6246  -19.6527   21.7590 H   0  0  0  0  0  0  0  0  0  0  0  0
  -76.2737  -19.1228   19.5499 H   0  0  0  0  0  0  0  0  0  0  0  0
  -78.6664  -18.3923   17.9500 H   0  0  0  0  0  0  0  0  0  0  0  0
  -77.8391  -19.9300   17.7884 H   0  0  0  0  0  0  0  0  0  0  0  0
  -74.4790  -16.7014   17.2975 H   0  0  0  0  0  0  0  0  0  0  0  0
  -75.5047  -21.5129   20.7836 H   0  0  0  0  0  0  0  0  0  0  0  0
  -75.1238  -18.2928   22.6856 H   0  0  0  0  0  0  0  0  0  0  0  0
  -73.5131  -19.0455   19.5124 H   0  0  0  0  0  0  0  0  0  0  0  0
  -71.8092  -21.0040   20.9879 H   0  0  0  0  0  0  0  0  0  0  0  0
  -71.7202  -20.6434   19.2806 H   0  0  0  0  0  0  0  0  0  0  0  0
  -73.1537  -21.3923   19.9418 H   0  0  0  0  0  0  0  0  0  0  0  0
  -71.3356  -18.3999   21.4449 H   0  0  0  0  0  0  0  0  0  0  0  0
  -73.0403  -16.5128   19.9233 H   0  0  0  0  0  0  0  0  0  0  0  0
  -71.2910  -16.3281   22.2210 H   0  0  0  0  0  0  0  0  0  0  0  0
  -73.2851  -17.0112   22.8257 H   0  0  0  0  0  0  0  0  0  0  0  0
  -75.0177  -15.7491   20.9432 H   0  0  0  0  0  0  0  0  0  0  0  0
  -72.4164  -18.9692   18.0866 H   0  0  0  0  0  0  0  0  0  0  0  0
  -69.8037  -20.5783   18.4493 H   0  0  0  0  0  0  0  0  0  0  0  0
  -67.4461  -20.9523   16.2172 H   0  0  0  0  0  0  0  0  0  0  0  0
  -66.4994  -19.6942   15.4596 H   0  0  0  0  0  0  0  0  0  0  0  0
  -67.6006  -20.6554   14.5023 H   0  0  0  0  0  0  0  0  0  0  0  0
  -69.7926  -16.4418   14.4695 H   0  0  0  0  0  0  0  0  0  0  0  0
  -71.9813  -16.0791   17.3105 H   0  0  0  0  0  0  0  0  0  0  0  0
  -72.6100  -16.5554   15.7501 H   0  0  0  0  0  0  0  0  0  0  0  0
  -70.6303  -12.5581   15.2237 H   0  0  0  0  0  0  0  0  0  0  0  0
  -72.1462  -13.9092   18.1948 H   0  0  0  0  0  0  0  0  0  0  0  0
  1  2  2  0
  2  3  4  0
  3  4  4  0
  2  5  4  0
  5  6  4  0
  6  7  2  0
  4  8  4  0
  6  8  4  0
  9  8  1  0
  9 10  1  0
  9 11  1  0
 11 12  1  0
 11 13  1  0
 13 14  1  0
 10 15  1  0
 13 15  1  0
 15 16  1  0
 16 17  1  0
 18 17  1  6
 18 19  2  0
 18 20  1  0
 18 21  1  0
 22 21  1  6
 22 23  2  0
 22 24  1  0
 22 25  1  0
 26 25  1  0
 26 27  1  0
 27 28  1  0
 28 29  1  0
 28 30  1  0
 30 31  1  0
 31 32  1  0
 31 33  1  0
 26 33  1  0
 33 34  1  0
 30 35  1  0
 35 36  2  3
 36 37  1  0
 37 38  4  0
 38 39  1  0
 38 40  4  0
 40 41  1  0
 37 42  4  0
 42 43  4  0
 40 44  4  0
 43 44  4  0
 42 45  1  0
 45 46  1  0
 47 46  1  6
 47 48  1  0
 47 49  2  0
 47 50  1  0
  3 51  1  0
  4 52  1  0
  5 53  1  0
  9 54  1  1
 11 55  1  6
 12 56  1  0
 13 57  1  6
 14 58  1  0
 15 59  1  6
 16 60  1  0
 16 61  1  0
 20 62  1  0
 24 63  1  0
 26 64  1  1
 28 65  1  6
 29 66  1  0
 29 67  1  0
 29 68  1  0
 30 69  1  1
 31 70  1  6
 32 71  1  0
 33 72  1  1
 34 73  1  0
 36 74  1  0
 39 75  1  0
 41 76  1  0
 41 77  1  0
 41 78  1  0
 43 79  1  0
 45 80  1  0
 45 81  1  0
 48 82  1  0
 50 83  1  0
M  CHG  2   5   1   8   1
M  END
