7M41_YQG_B_201
     RDKit          3D

 48 52  0  0  0  0  0  0  0  0999 V2000
   -2.2285    1.9758    4.2641 N   0  0  0  0  0  0  0  0  0  0  0  0
   -2.5473    4.5036    1.7208 N   0  0  0  0  0  0  0  0  0  0  0  0
   -1.5114   -0.3103    3.9963 C   0  0  0  0  0  0  0  0  0  0  0  0
   -1.7922    0.9531    3.4582 C   0  0  0  0  0  0  0  0  0  0  0  0
   -1.6199    1.1658    2.0673 C   0  0  0  0  0  0  0  0  0  0  0  0
   -2.5028    3.2075    3.7426 C   0  0  0  0  0  0  0  0  0  0  0  0
   -1.9125    2.4420    1.5866 C   0  0  0  0  0  0  0  0  0  0  0  0
   -2.3693    5.1031   -0.7040 C   0  0  0  0  0  0  0  0  0  0  0  0
    1.2299   -3.2340   -0.5645 C   0  0  0  0  0  0  0  0  0  0  0  0
   -0.9130   -4.3109   -0.2440 C   0  0  0  0  0  0  0  0  0  0  0  0
    1.8232   -1.0804    0.5869 C   0  0  0  0  0  0  0  0  0  0  0  0
    1.3288   -2.1929   -4.9243 C   0  0  0  0  0  0  0  0  0  0  0  0
   -1.1767    0.1260    1.2410 C   0  0  0  0  0  0  0  0  0  0  0  0
   -0.4326   -2.2208    0.8959 C   0  0  0  0  0  0  0  0  0  0  0  0
    0.8548   -2.2014    0.3118 C   0  0  0  0  0  0  0  0  0  0  0  0
    0.3481   -4.2916   -0.8539 C   0  0  0  0  0  0  0  0  0  0  0  0
   -1.3018   -3.2847    0.6173 C   0  0  0  0  0  0  0  0  0  0  0  0
    2.0386   -3.8122   -3.7500 C   0  0  0  0  0  0  0  0  0  0  0  0
    2.6555   -1.9708   -4.6295 C   0  0  0  0  0  0  0  0  0  0  0  0
   -0.8959   -1.1356    1.7879 C   0  0  0  0  0  0  0  0  0  0  0  0
   -1.0663   -1.3513    3.1717 C   0  0  0  0  0  0  0  0  0  0  0  0
   -2.2258    4.1684    0.4485 C   0  0  0  0  0  0  0  0  0  0  0  0
   -2.3337    3.4019    2.4121 N   0  0  0  0  0  0  0  0  0  0  0  0
   -1.8315    2.8747    0.3137 N   0  0  0  0  0  0  0  0  0  0  0  0
    0.7074   -5.3571   -1.7521 N   0  0  0  0  0  0  0  0  0  0  0  0
    3.0992   -2.9958   -3.8875 N   0  0  0  0  0  0  0  0  0  0  0  0
    0.9312   -3.3553   -4.3693 N   0  0  0  0  0  0  0  0  0  0  0  0
   -2.9052    4.1436    4.4846 O   0  0  0  0  0  0  0  0  0  0  0  0
    2.0092   -6.4639   -3.7729 O   0  0  0  0  0  0  0  0  0  0  0  0
    3.3396   -5.3917   -2.0218 O   0  0  0  0  0  0  0  0  0  0  0  0
    2.0714   -5.3013   -2.8233 S   0  0  0  0  0  6  0  0  0  0  0  0
   -0.6986   -2.9074    3.9088 Cl  0  0  0  0  0  0  0  0  0  0  0  0
   -2.3556    1.8178    5.2903 H   0  0  0  0  0  0  0  0  0  0  0  0
   -1.6345   -0.4859    5.0581 H   0  0  0  0  0  0  0  0  0  0  0  0
   -1.6297    4.8493   -1.4923 H   0  0  0  0  0  0  0  0  0  0  0  0
   -2.1948    6.1473   -0.3695 H   0  0  0  0  0  0  0  0  0  0  0  0
   -3.3938    5.0188   -1.1223 H   0  0  0  0  0  0  0  0  0  0  0  0
    2.2153   -3.2099   -1.0070 H   0  0  0  0  0  0  0  0  0  0  0  0
   -1.6049   -5.1184   -0.4484 H   0  0  0  0  0  0  0  0  0  0  0  0
    2.8589   -1.3597    0.2986 H   0  0  0  0  0  0  0  0  0  0  0  0
    1.5263   -0.1817    0.0073 H   0  0  0  0  0  0  0  0  0  0  0  0
    1.8319   -0.8333    1.6696 H   0  0  0  0  0  0  0  0  0  0  0  0
    0.6877   -1.5443   -5.5057 H   0  0  0  0  0  0  0  0  0  0  0  0
   -1.0526    0.2907    0.1767 H   0  0  0  0  0  0  0  0  0  0  0  0
   -2.2894   -3.3136    1.0618 H   0  0  0  0  0  0  0  0  0  0  0  0
    3.2529   -1.1203   -4.9306 H   0  0  0  0  0  0  0  0  0  0  0  0
    0.0708   -6.1806   -1.8419 H   0  0  0  0  0  0  0  0  0  0  0  0
    4.0585   -3.1228   -3.4954 H   0  0  0  0  0  0  0  0  0  0  0  0
  1  4  1  0
  3  4  2  0
  4  5  1  0
  1  6  1  0
  5  7  1  0
  5 13  2  0
  9 15  2  0
 11 15  1  0
 14 15  1  0
  9 16  1  0
 10 16  2  0
 10 17  1  0
 14 17  2  0
 12 19  2  0
 13 20  1  0
 14 20  1  0
 20 21  2  0
  3 21  1  0
  8 22  1  0
  2 22  2  0
  2 23  1  0
  7 23  1  0
  6 23  1  0
 22 24  1  0
  7 24  2  0
 16 25  1  0
 19 26  1  0
 18 26  1  0
 12 27  1  0
 18 27  2  0
  6 28  2  0
 18 31  1  0
 30 31  2  0
 29 31  2  0
 25 31  1  0
 21 32  1  0
  1 33  1  0
  3 34  1  0
  8 35  1  0
  8 36  1  0
  8 37  1  0
  9 38  1  0
 10 39  1  0
 11 40  1  0
 11 41  1  0
 11 42  1  0
 12 43  1  0
 13 44  1  0
 17 45  1  0
 19 46  1  0
 25 47  1  0
 26 48  1  0
M  END
