
     RDKit          3D

 14 15  0  0  0  0  0  0  0  0999 V2000
  -14.9512    9.5925   21.8695 C   0  0  0  0  0  0  0  0  0  0  0  0
  -15.1960    8.3049   22.3947 C   0  0  0  0  0  0  0  0  0  0  0  0
  -15.1386    8.0632   23.7679 C   0  0  0  0  0  0  0  0  0  0  0  0
  -14.6727   10.6868   22.6987 C   0  0  0  0  0  0  0  0  0  0  0  0
  -14.5780   10.3907   24.0573 C   0  0  0  0  0  0  0  0  0  0  0  0
  -14.8164    9.1223   24.5949 C   0  0  0  0  0  0  0  0  0  0  0  0
  -14.6349    9.1668   26.0959 C   0  0  2  0  0  0  0  0  0  0  0  0
  -14.2166   10.6402   26.3151 C   0  0  0  0  0  0  0  0  0  0  0  0
  -13.5163    8.2385   26.5653 C   0  0  0  0  0  0  0  0  0  0  0  0
  -15.9452    8.8891   26.8307 C   0  0  0  0  0  0  0  0  0  0  0  0
  -14.4144   12.2436   20.8104 C   0  0  0  0  0  0  0  0  0  0  0  0
  -14.3741   11.9728   22.2364 N   0  0  0  0  0  0  0  0  0  0  0  0
  -14.2305   11.2683   25.0791 N   0  0  0  0  0  0  0  0  0  0  0  0
  -13.9259   11.1721   27.3746 O   0  0  0  0  0  0  0  0  0  0  0  0
  1  2  4  0
  2  3  4  0
  1  4  4  0
  4  5  4  0
  3  6  4  0
  5  6  4  0
  6  7  1  0
  7  8  1  0
  7  9  1  1
  7 10  1  0
 11 12  1  0
  4 12  1  0
  5 13  1  0
  8 13  1  0
  8 14  2  0
M  END
