6YSP_PAL_C_401
     RDKit          3D

 26 25  0  0  0  0  0  0  0  0999 V2000
   20.4277   30.0249  -34.4681 P   0  0  1  0  0  5  0  0  0  0  0  0
   20.5451   30.7371  -35.7987 O   0  0  0  0  0  0  0  0  0  0  0  0
   19.2315   30.4564  -33.6574 O   0  0  0  0  0  0  0  0  0  0  0  0
   20.4944   28.5207  -34.6240 O   0  0  0  0  0  0  0  0  0  0  0  0
   21.9258   30.4611  -33.4994 C   0  0  0  0  0  0  0  0  0  0  0  0
   21.8605   29.7497  -32.1747 C   0  0  0  0  0  0  0  0  0  0  0  0
   21.1932   28.7770  -32.0076 O   0  0  0  0  0  0  0  0  0  0  0  0
   22.6373   30.3666  -31.1789 N   0  0  0  0  0  0  0  0  0  0  0  0
   23.4673   31.5228  -31.4781 C   0  0  2  0  0  0  0  0  0  0  0  0
   23.2487   32.1399  -32.8465 C   0  0  0  0  0  0  0  0  0  0  0  0
   22.3154   32.9442  -33.1115 O   0  0  0  0  0  0  0  0  0  0  0  0
   24.1171   31.8263  -33.7004 O   0  0  0  0  0  0  0  0  0  0  0  0
   24.9120   31.0612  -31.2682 C   0  0  0  0  0  0  0  0  0  0  0  0
   25.5727   31.5582  -29.9941 C   0  0  0  0  0  0  0  0  0  0  0  0
   26.8195   31.6917  -29.9480 O   0  0  0  0  0  0  0  0  0  0  0  0
   24.8328   31.8622  -29.0206 O   0  0  0  0  0  0  0  0  0  0  0  0
   18.4185   30.2406  -34.1406 H   0  0  0  0  0  0  0  0  0  0  0  0
   19.7267   28.2139  -35.1313 H   0  0  0  0  0  0  0  0  0  0  0  0
   21.9576   31.5186  -33.3401 H   0  0  0  0  0  0  0  0  0  0  0  0
   22.8058   30.1658  -34.0316 H   0  0  0  0  0  0  0  0  0  0  0  0
   22.6192   30.0093  -30.2616 H   0  0  0  0  0  0  0  0  0  0  0  0
   23.2003   32.3276  -30.8254 H   0  0  0  0  0  0  0  0  0  0  0  0
   24.8000   31.2254  -33.4753 H   0  0  0  0  0  0  0  0  0  0  0  0
   25.4931   31.4054  -32.0982 H   0  0  0  0  0  0  0  0  0  0  0  0
   24.8734   29.9951  -31.1855 H   0  0  0  0  0  0  0  0  0  0  0  0
   23.9046   31.7513  -29.0850 H   0  0  0  0  0  0  0  0  0  0  0  0
  1  2  2  0
  1  3  1  1
  1  4  1  0
  1  5  1  0
  5  6  1  0
  6  7  2  0
  6  8  1  0
  8  9  1  0
  9 10  1  0
 10 11  2  0
 10 12  1  0
  9 13  1  0
 13 14  1  0
 14 15  2  0
 14 16  1  0
  3 17  1  0
  4 18  1  0
  5 19  1  0
  5 20  1  0
  8 21  1  0
  9 22  1  1
 12 23  1  0
 13 24  1  0
 13 25  1  0
 16 26  1  0
M  END
