7UJF_R3V_C_601
     RDKit          3D

 65 69  0  0  0  0  0  0  0  0999 V2000
   -2.6749  -13.4573  -66.3533 C   0  0  0  0  0  0  0  0  0  0  0  0
   -2.4243  -13.7376  -67.7976 C   0  0  2  0  0  0  0  0  0  0  0  0
   -0.8930  -13.8506  -68.0465 C   0  0  0  0  0  0  0  0  0  0  0  0
   -3.0128  -12.6215  -68.5342 C   0  0  0  0  0  0  0  0  0  0  0  0
   -4.0083  -11.9843  -67.5436 C   0  0  0  0  0  0  0  0  0  0  0  0
   -4.0229  -12.9369  -66.4297 N   0  0  0  0  0  0  0  0  0  0  0  0
   -4.4044  -12.3582  -65.2142 C   0  0  0  0  0  0  0  0  0  0  0  0
   -5.2133  -13.3720  -64.3849 C   0  0  0  0  0  0  0  0  0  0  0  0
   -4.4137  -13.7227  -63.2557 O   0  0  0  0  0  0  0  0  0  0  0  0
   -2.9988  -13.7922  -63.4430 C   0  0  0  0  0  0  0  0  0  0  0  0
   -2.3037  -15.1395  -63.6049 C   0  0  0  0  0  0  0  0  0  0  0  0
   -0.9374  -15.2135  -63.7878 C   0  0  0  0  0  0  0  0  0  0  0  0
   -2.2867  -12.6295  -63.4939 C   0  0  0  0  0  0  0  0  0  0  0  0
   -0.7771  -12.7241  -63.7059 C   0  0  0  0  0  0  0  0  0  0  0  0
   -0.1353  -13.9296  -63.8596 C   0  0  0  0  0  0  0  0  0  0  0  0
    1.3731  -13.9390  -64.0507 C   0  0  1  0  0  0  0  0  0  0  0  0
    1.9202  -14.4723  -62.8388 C   0  0  0  0  0  0  0  0  0  0  0  0
    1.7272  -13.6005  -61.6087 C   0  0  0  0  0  0  0  0  0  0  0  0
    2.2371  -14.0868  -60.4200 C   0  0  0  0  0  0  0  0  0  0  0  0
    2.9536  -15.4370  -60.3459 C   0  0  0  0  0  0  0  0  0  0  0  0
    3.4191  -15.9003  -59.1154 O   0  0  0  0  0  0  0  0  0  0  0  0
    3.1532  -16.2194  -61.4621 C   0  0  0  0  0  0  0  0  0  0  0  0
    2.5482  -15.6460  -62.7258 C   0  0  0  0  0  0  0  0  0  0  0  0
    2.8656  -16.7046  -63.8169 C   0  0  0  0  0  0  0  0  0  0  0  0
    1.8268  -16.3417  -64.9111 C   0  0  0  0  0  0  0  0  0  0  0  0
    1.8142  -14.8174  -65.1768 C   0  0  1  0  0  0  0  0  0  0  0  0
    0.9840  -14.4999  -66.4340 C   0  0  0  0  0  0  0  0  0  0  0  0
    0.9727  -13.2295  -66.9769 C   0  0  0  0  0  0  0  0  0  0  0  0
    0.2152  -12.9610  -68.1129 C   0  0  0  0  0  0  0  0  0  0  0  0
   -0.5358  -13.9823  -68.6898 C   0  0  0  0  0  0  0  0  0  0  0  0
   -0.5341  -15.2530  -68.1423 C   0  0  0  0  0  0  0  0  0  0  0  0
    0.2264  -15.5204  -67.0080 C   0  0  0  0  0  0  0  0  0  0  0  0
   -2.6256  -14.3474  -65.7614 H   0  0  0  0  0  0  0  0  0  0  0  0
   -1.9648  -12.8042  -65.8907 H   0  0  0  0  0  0  0  0  0  0  0  0
   -2.8593  -14.6617  -68.1166 H   0  0  0  0  0  0  0  0  0  0  0  0
   -0.4140  -12.9441  -67.7404 H   0  0  0  0  0  0  0  0  0  0  0  0
   -0.4996  -14.6702  -67.4822 H   0  0  0  0  0  0  0  0  0  0  0  0
   -0.7122  -14.0154  -69.0881 H   0  0  0  0  0  0  0  0  0  0  0  0
   -2.2592  -11.9171  -68.8183 H   0  0  0  0  0  0  0  0  0  0  0  0
   -3.4872  -12.9378  -69.4396 H   0  0  0  0  0  0  0  0  0  0  0  0
   -3.6678  -11.0222  -67.2220 H   0  0  0  0  0  0  0  0  0  0  0  0
   -4.9763  -11.8178  -67.9679 H   0  0  0  0  0  0  0  0  0  0  0  0
   -3.5305  -12.0697  -64.6684 H   0  0  0  0  0  0  0  0  0  0  0  0
   -5.0095  -11.4971  -65.4075 H   0  0  0  0  0  0  0  0  0  0  0  0
   -6.1328  -12.9309  -64.0609 H   0  0  0  0  0  0  0  0  0  0  0  0
   -5.4509  -14.2376  -64.9673 H   0  0  0  0  0  0  0  0  0  0  0  0
   -2.8617  -16.0072  -63.5775 H   0  0  0  0  0  0  0  0  0  0  0  0
   -0.4693  -16.1291  -63.8743 H   0  0  0  0  0  0  0  0  0  0  0  0
   -2.7534  -11.7147  -63.3924 H   0  0  0  0  0  0  0  0  0  0  0  0
   -0.2213  -11.8551  -63.7346 H   0  0  0  0  0  0  0  0  0  0  0  0
    1.7012  -12.9462  -64.2779 H   0  0  0  0  0  0  0  0  0  0  0  0
    1.2404  -12.6920  -61.6587 H   0  0  0  0  0  0  0  0  0  0  0  0
    2.1320  -13.5253  -59.5605 H   0  0  0  0  0  0  0  0  0  0  0  0
    3.2943  -15.3847  -58.3430 H   0  0  0  0  0  0  0  0  0  0  0  0
    3.6677  -17.1138  -61.4389 H   0  0  0  0  0  0  0  0  0  0  0  0
    3.8672  -16.6038  -64.1799 H   0  0  0  0  0  0  0  0  0  0  0  0
    2.8033  -17.7164  -63.4745 H   0  0  0  0  0  0  0  0  0  0  0  0
    2.0787  -16.8529  -65.8166 H   0  0  0  0  0  0  0  0  0  0  0  0
    0.8560  -16.6377  -64.5724 H   0  0  0  0  0  0  0  0  0  0  0  0
    2.8482  -14.5780  -65.3127 H   0  0  0  0  0  0  0  0  0  0  0  0
    1.5276  -12.4777  -66.5389 H   0  0  0  0  0  0  0  0  0  0  0  0
    0.2100  -12.0143  -68.5238 H   0  0  0  0  0  0  0  0  0  0  0  0
   -1.0984  -13.7896  -69.5331 H   0  0  0  0  0  0  0  0  0  0  0  0
   -1.0968  -16.0022  -68.5750 H   0  0  0  0  0  0  0  0  0  0  0  0
    0.2297  -16.4662  -66.5951 H   0  0  0  0  0  0  0  0  0  0  0  0
  1  2  1  0
  2  3  1  0
  2  4  1  0
  4  5  1  0
  1  6  1  0
  5  6  1  0
  6  7  1  0
  7  8  1  0
  8  9  1  0
  9 10  1  0
 10 11  4  0
 11 12  4  0
 10 13  4  0
 13 14  4  0
 14 15  4  0
 12 15  4  0
 16 15  1  0
 16 17  1  0
 17 18  4  0
 18 19  4  0
 19 20  4  0
 20 21  1  0
 20 22  4  0
 17 23  4  0
 22 23  4  0
 23 24  1  0
 24 25  1  0
 16 26  1  0
 25 26  1  0
 26 27  1  0
 27 28  4  0
 28 29  4  0
 29 30  4  0
 30 31  4  0
 31 32  4  0
 27 32  4  0
  1 33  1  0
  1 34  1  0
  2 35  1  1
  3 36  1  0
  3 37  1  0
  3 38  1  0
  4 39  1  0
  4 40  1  0
  5 41  1  0
  5 42  1  0
  7 43  1  0
  7 44  1  0
  8 45  1  0
  8 46  1  0
 11 47  1  0
 12 48  1  0
 13 49  1  0
 14 50  1  0
 16 51  1  1
 18 52  1  0
 19 53  1  0
 21 54  1  0
 22 55  1  0
 24 56  1  0
 24 57  1  0
 25 58  1  0
 25 59  1  0
 26 60  1  1
 28 61  1  0
 29 62  1  0
 30 63  1  0
 31 64  1  0
 32 65  1  0
M  END
