1T40_ID5_A_320
     RDKit          3D

 28 30  0  0  0  0  0  0  0  0999 V2000
   17.3684   -4.9500   15.8598 C   0  0  0  0  0  0  0  0  0  0  0  0
   17.8793   -7.3693   14.7796 C   0  0  0  0  0  0  0  0  0  0  0  0
   16.8104   -6.0792   16.4222 C   0  0  0  0  0  0  0  0  0  0  0  0
   18.1967   -4.9987   14.7415 C   0  0  0  0  0  0  0  0  0  0  0  0
   18.4357   -6.2462   14.2173 C   0  0  0  0  0  0  0  0  0  0  0  0
   17.0497   -7.3224   15.8987 C   0  0  0  0  0  0  0  0  0  0  0  0
   19.3016  -15.8983   16.3379 F   0  0  0  0  0  0  0  0  0  0  0  0
   18.7421   -3.8880   14.1919 F   0  0  0  0  0  0  0  0  0  0  0  0
   16.5350   -8.5788   16.3832 C   0  0  0  0  0  0  0  0  0  0  0  0
   15.8145  -11.1778   16.8996 C   0  0  0  0  0  0  0  0  0  0  0  0
   18.3175  -12.6391   13.0424 F   0  0  0  0  0  0  0  0  0  0  0  0
   16.0022   -5.9777   17.5251 O   0  0  0  0  0  0  0  0  0  0  0  0
   17.3048   -9.6083   16.3718 O   0  0  0  0  0  0  0  0  0  0  0  0
   14.8957  -10.1226   17.3953 C   0  0  0  0  0  0  0  0  0  0  0  0
   15.6004   -4.7254   18.0063 C   0  0  0  0  0  0  0  0  0  0  0  0
   16.4011  -12.1921   17.1999 N   0  0  0  0  0  0  0  0  0  0  0  0
   16.3965  -11.0131   15.0986 S   0  0  0  0  0  0  0  0  0  0  0  0
   17.7482  -14.6502   18.1203 F   0  0  0  0  0  0  0  0  0  0  0  0
   17.4233  -12.5515   15.1991 C   0  0  0  0  0  0  0  0  0  0  0  0
   18.6554  -14.7551   15.9609 C   0  0  0  0  0  0  0  0  0  0  0  0
   17.1879  -12.9449   16.5135 C   0  0  0  0  0  0  0  0  0  0  0  0
   18.1876  -13.1561   14.3051 C   0  0  0  0  0  0  0  0  0  0  0  0
   18.8602  -14.3295   14.6682 C   0  0  0  0  0  0  0  0  0  0  0  0
   17.8613  -14.1222   16.8811 C   0  0  0  0  0  0  0  0  0  0  0  0
   14.7654   -4.8089   19.2308 C   0  0  0  0  0  0  0  0  0  0  0  0
   14.3421   -3.7240   19.9636 O   0  0  0  0  0  0  0  0  0  0  0  0
   14.4097   -5.9532   19.6391 O   0  0  0  0  0  0  0  0  0  0  0  0
   15.2426   -8.8178   16.8847 N   0  0  0  0  0  0  0  0  0  0  0  0
  1  3  2  0
  1  4  1  0
  2  5  1  0
  4  5  2  0
  2  6  2  0
  3  6  1  0
  4  8  1  0
  6  9  1  0
  3 12  1  0
  9 13  2  0
 10 14  1  0
 15 12  1  6
 10 16  2  0
 10 17  1  0
 17 19  1  0
  7 20  1  0
 16 21  1  0
 19 21  2  0
 11 22  1  0
 19 22  1  0
 20 23  1  0
 22 23  2  0
 18 24  1  0
 20 24  2  0
 21 24  1  0
 15 25  1  0
 25 26  1  0
 25 27  2  0
  9 28  1  0
 14 28  1  6
M  END
$$$$
