7TE8_P0T_C_201
     RDKit          3D

 23 24  0  0  0  0  0  0  0  0999 V2000
  -28.8571  -48.8182   42.3372 C   0  0  0  0  0  0  0  0  0  0  0  0
  -32.1596  -50.2383   41.0204 C   0  0  0  0  0  0  0  0  0  0  0  0
  -30.4893  -51.7224   40.3076 C   0  0  0  0  0  0  0  0  0  0  0  0
  -28.8497  -48.1679   36.7152 C   0  0  0  0  0  0  0  0  0  0  0  0
  -27.5033  -49.1066   42.9816 C   0  0  0  0  0  0  0  0  0  0  0  0
  -28.8720  -48.9226   40.8700 C   0  0  1  0  0  0  0  0  0  0  0  0
  -30.1078  -49.2273   40.1794 C   0  0  1  0  0  0  0  0  0  0  0  0
  -28.3381  -47.5632   40.3719 C   0  0  0  0  0  0  0  0  0  0  0  0
  -28.9557  -47.1004   39.1037 C   0  0  0  0  0  0  0  0  0  0  0  0
  -29.7923  -49.3051   38.6948 C   0  0  0  0  0  0  0  0  0  0  0  0
  -30.8972  -50.3984   40.4780 C   0  0  0  0  0  0  0  0  0  0  0  0
  -29.2058  -48.2202   38.1413 C   0  0  0  0  0  0  0  0  0  0  0  0
  -32.5519  -52.5926   41.1968 C   0  0  0  0  0  0  0  0  0  0  0  0
  -32.9690  -51.2985   41.3720 C   0  0  0  0  0  0  0  0  0  0  0  0
  -31.2890  -52.7894   40.6547 C   0  0  0  0  0  0  0  0  0  0  0  0
  -33.3412  -53.7946   41.5346 C   0  0  0  0  0  0  0  0  0  0  0  0
  -29.8421  -48.5215   43.1465 C   0  0  0  0  0  0  0  0  0  0  0  0
  -33.5299  -54.7604   40.4133 C   0  0  0  0  0  0  0  0  0  0  0  0
  -34.2524  -56.0173   40.7541 C   0  0  0  0  0  0  0  0  0  0  0  0
  -34.4721  -56.9621   39.6125 C   0  0  0  0  0  0  0  0  0  0  0  0
  -35.2194  -58.1651   40.1712 C   0  0  0  0  0  0  0  0  0  0  0  0
  -32.6443  -48.9355   41.2246 O   0  0  0  0  0  0  0  0  0  0  0  0
  -29.2381  -51.9662   39.7731 O   0  0  0  0  0  0  0  0  0  0  0  0
  5  1  1  1
  6  1  1  1
  6  7  1  0
  6  8  1  0
  8  9  1  1
  7 10  1  0
  2 11  2  0
  7 11  1  1
  3 11  1  0
  4 12  1  6
  9 12  1  6
 10 12  2  0
  2 14  1  0
 13 14  2  0
 13 15  1  0
  3 15  2  0
 16 13  1  1
  1 17  2  0
 18 16  1  6
 19 18  1  1
 19 20  1  0
 20 21  1  1
  2 22  1  0
  3 23  1  0
M  END
$$$$
