7BLA_WCS_A_1901
     RDKit          3D

 62 64  0  0  0  0  0  0  0  0999 V2000
   -0.5037    0.5920   -1.3429 C   0  0  0  0  0  0  0  0  0  0  0  0
   -1.0231    1.2588   -0.1163 C   0  0  0  0  0  0  0  0  0  0  0  0
   -1.6146    3.2755    0.9839 C   0  0  0  0  0  0  0  0  0  0  0  0
   -2.9611    5.5052   -0.2638 C   0  0  0  0  0  0  0  0  0  0  0  0
   -2.1795    5.5225    2.2992 O   0  0  0  0  0  0  0  0  0  0  0  0
   -0.4153    5.6217    0.6046 O   0  0  0  0  0  0  0  0  0  0  0  0
   -1.8665    1.2327    2.1562 C   0  0  0  0  0  0  0  0  0  0  0  0
    3.6366   -1.9752   -2.4624 C   0  0  0  0  0  0  0  0  0  0  0  0
    3.9030   -1.9605   -4.8882 C   0  0  0  0  0  0  0  0  0  0  0  0
    3.2819   -0.6060   -5.2774 C   0  0  0  0  0  0  0  0  0  0  0  0
    1.8466   -0.7353   -5.8160 C   0  0  0  0  0  0  0  0  0  0  0  0
    0.4825   -0.6259   -3.6981 C   0  0  0  0  0  0  0  0  0  0  0  0
   -0.2880   -1.3597   -2.7884 C   0  0  0  0  0  0  0  0  0  0  0  0
   -0.7844   -0.7612   -1.6275 C   0  0  0  0  0  0  0  0  0  0  0  0
   -2.2474   -0.8874    3.5646 C   0  0  0  0  0  0  0  0  0  0  0  0
   -0.8288   -1.3530    3.9161 C   0  0  0  0  0  0  0  0  0  0  0  0
   -0.7335   -2.8812    4.0093 C   0  0  0  0  0  0  0  0  0  0  0  0
   -1.2740   -3.3336    6.4113 C   0  0  0  0  0  0  0  0  0  0  0  0
   -2.3204   -3.8973    7.1103 C   0  0  0  0  0  0  0  0  0  0  0  0
   -3.2252   -4.2848    6.1392 C   0  0  0  0  0  0  0  0  0  0  0  0
   -1.3739    0.5367    1.0384 C   0  0  0  0  0  0  0  0  0  0  0  0
    0.2614    1.3314   -2.2690 C   0  0  0  0  0  0  0  0  0  0  0  0
    0.7445    0.7332   -3.4361 C   0  0  0  0  0  0  0  0  0  0  0  0
    3.4791   -4.0285   -3.7054 C   0  0  0  0  0  0  0  0  0  0  0  0
    3.2076   -2.5814   -3.7369 N   0  0  0  0  0  0  0  0  0  0  0  0
   -1.1487    2.6132   -0.1040 N   0  0  0  0  0  0  0  0  0  0  0  0
   -1.9723    2.5856    2.0961 N   0  0  0  0  0  0  0  0  0  0  0  0
   -2.2760    0.5612    3.3619 N   0  0  0  0  0  0  0  0  0  0  0  0
   -1.5625   -3.3957    5.0976 N   0  0  0  0  0  0  0  0  0  0  0  0
   -2.7446   -3.9668    4.9204 N   0  0  0  0  0  0  0  0  0  0  0  0
    0.9579   -1.2869   -4.8421 O   0  0  0  0  0  0  0  0  0  0  0  0
   -1.7507    5.0228    0.9481 S   0  0  0  0  0  6  0  0  0  0  0  0
   -3.9310    5.0131   -0.0382 H   0  0  0  0  0  0  0  0  0  0  0  0
   -2.6169    5.1960   -1.2752 H   0  0  0  0  0  0  0  0  0  0  0  0
   -3.0908    6.6088   -0.2409 H   0  0  0  0  0  0  0  0  0  0  0  0
    4.7404   -2.0318   -2.3347 H   0  0  0  0  0  0  0  0  0  0  0  0
    3.1516   -2.4916   -1.6062 H   0  0  0  0  0  0  0  0  0  0  0  0
    3.3170   -0.9150   -2.4074 H   0  0  0  0  0  0  0  0  0  0  0  0
    3.8441   -2.6211   -5.7836 H   0  0  0  0  0  0  0  0  0  0  0  0
    4.9873   -1.8185   -4.6687 H   0  0  0  0  0  0  0  0  0  0  0  0
    3.9080   -0.1600   -6.0813 H   0  0  0  0  0  0  0  0  0  0  0  0
    3.3191    0.1019   -4.4266 H   0  0  0  0  0  0  0  0  0  0  0  0
    1.8528   -1.4071   -6.7010 H   0  0  0  0  0  0  0  0  0  0  0  0
    1.4729    0.2529   -6.1634 H   0  0  0  0  0  0  0  0  0  0  0  0
   -0.5075   -2.4033   -2.9852 H   0  0  0  0  0  0  0  0  0  0  0  0
   -1.4070   -1.3592   -0.9742 H   0  0  0  0  0  0  0  0  0  0  0  0
   -2.6355   -1.4106    2.6645 H   0  0  0  0  0  0  0  0  0  0  0  0
   -2.9256   -1.1417    4.4080 H   0  0  0  0  0  0  0  0  0  0  0  0
   -0.5205   -0.8997    4.8845 H   0  0  0  0  0  0  0  0  0  0  0  0
   -0.1139   -1.0045    3.1407 H   0  0  0  0  0  0  0  0  0  0  0  0
   -1.0466   -3.3392    3.0442 H   0  0  0  0  0  0  0  0  0  0  0  0
    0.3253   -3.1699    4.1876 H   0  0  0  0  0  0  0  0  0  0  0  0
   -0.3728   -2.9060    6.8306 H   0  0  0  0  0  0  0  0  0  0  0  0
   -2.4139   -4.0096    8.1822 H   0  0  0  0  0  0  0  0  0  0  0  0
   -4.1789   -4.7689    6.3105 H   0  0  0  0  0  0  0  0  0  0  0  0
   -1.2472   -0.5322    1.0745 H   0  0  0  0  0  0  0  0  0  0  0  0
    0.4930    2.3763   -2.0902 H   0  0  0  0  0  0  0  0  0  0  0  0
    1.3185    1.3402   -4.1243 H   0  0  0  0  0  0  0  0  0  0  0  0
    4.5724   -4.2322   -3.6404 H   0  0  0  0  0  0  0  0  0  0  0  0
    3.0718   -4.5133   -4.6189 H   0  0  0  0  0  0  0  0  0  0  0  0
    2.9681   -4.5008   -2.8382 H   0  0  0  0  0  0  0  0  0  0  0  0
   -2.6935    1.1441    4.1233 H   0  0  0  0  0  0  0  0  0  0  0  0
  1  2  1  0
  9 10  1  0
 10 11  1  0
 12 13  2  0
 13 14  1  0
  1 14  2  0
 15 16  1  0
 16 17  1  0
 18 19  2  0
 19 20  1  0
  2 21  2  0
  7 21  1  0
  1 22  1  0
 12 23  1  0
 22 23  2  0
 24 25  1  0
  8 25  1  0
  9 25  1  0
  2 26  1  0
  3 26  2  0
  7 27  2  0
  3 27  1  0
 15 28  1  0
  7 28  1  0
 17 29  1  0
 18 29  1  0
 20 30  2  0
 29 30  1  0
 11 31  1  0
 12 31  1  0
  3 32  1  0
  4 32  1  0
  6 32  2  0
  5 32  2  0
  4 33  1  0
  4 34  1  0
  4 35  1  0
  8 36  1  0
  8 37  1  0
  8 38  1  0
  9 39  1  0
  9 40  1  0
 10 41  1  0
 10 42  1  0
 11 43  1  0
 11 44  1  0
 13 45  1  0
 14 46  1  0
 15 47  1  0
 15 48  1  0
 16 49  1  0
 16 50  1  0
 17 51  1  0
 17 52  1  0
 18 53  1  0
 19 54  1  0
 20 55  1  0
 21 56  1  0
 22 57  1  0
 23 58  1  0
 24 59  1  0
 24 60  1  0
 24 61  1  0
 28 62  1  0
M  END
