7BLA_WCS_A_1901
     RDKit          3D

 62 64  0  0  0  0  0  0  0  0999 V2000
   -8.7318    1.9800    4.2090 C   0  0  0  0  0  0  0  0  0  0  0  0
   -8.1824    2.0862    5.5266 C   0  0  0  0  0  0  0  0  0  0  0  0
   -8.4712    2.5087    7.7638 C   0  0  0  0  0  0  0  0  0  0  0  0
  -11.1711    3.0207    8.3907 C   0  0  0  0  0  0  0  0  0  0  0  0
   -9.1870    4.1047    9.7238 O   0  0  0  0  0  0  0  0  0  0  0  0
   -9.5602    1.7333   10.0769 O   0  0  0  0  0  0  0  0  0  0  0  0
   -6.3569    2.1983    7.0784 C   0  0  0  0  0  0  0  0  0  0  0  0
   -7.9948    5.2887    0.7334 C   0  0  0  0  0  0  0  0  0  0  0  0
   -8.0280    2.9333    1.1860 C   0  0  0  0  0  0  0  0  0  0  0  0
   -7.9310    2.1121   -0.0931 C   0  0  0  0  0  0  0  0  0  0  0  0
   -9.3102    1.9715   -0.7321 C   0  0  0  0  0  0  0  0  0  0  0  0
   -9.7969    1.9684    1.6125 C   0  0  0  0  0  0  0  0  0  0  0  0
   -8.5447    1.4409    1.8569 C   0  0  0  0  0  0  0  0  0  0  0  0
   -8.0148    1.4604    3.1327 C   0  0  0  0  0  0  0  0  0  0  0  0
   -4.2800    3.3140    7.8995 C   0  0  0  0  0  0  0  0  0  0  0  0
   -4.0289    4.3504    6.8120 C   0  0  0  0  0  0  0  0  0  0  0  0
   -5.2308    4.4886    5.8811 C   0  0  0  0  0  0  0  0  0  0  0  0
   -3.8233    4.3233    3.8910 C   0  0  0  0  0  0  0  0  0  0  0  0
   -3.6192    5.0656    2.7573 C   0  0  0  0  0  0  0  0  0  0  0  0
   -4.4711    6.1498    2.8179 C   0  0  0  0  0  0  0  0  0  0  0  0
   -6.8022    2.0219    5.7695 C   0  0  0  0  0  0  0  0  0  0  0  0
   -9.9963    2.5058    3.9319 C   0  0  0  0  0  0  0  0  0  0  0  0
  -10.5300    2.4964    2.6521 C   0  0  0  0  0  0  0  0  0  0  0  0
   -9.5904    4.4003    2.2639 C   0  0  0  0  0  0  0  0  0  0  0  0
   -8.8417    4.1374    1.0436 N   0  0  0  0  0  0  0  0  0  0  0  0
   -9.0075    2.3479    6.5561 N   0  0  0  0  0  0  0  0  0  0  0  0
   -7.1881    2.4613    8.0620 N   0  0  0  0  0  0  0  0  0  0  0  0
   -5.0006    2.1415    7.4486 N   0  0  0  0  0  0  0  0  0  0  0  0
   -4.7582    4.9467    4.5875 N   0  0  0  0  0  4  0  0  0  0  0  0
   -5.1695    6.0661    3.9346 N   0  0  0  0  0  0  0  0  0  0  0  0
  -10.2522    1.9344    0.3026 O   0  0  0  0  0  0  0  0  0  0  0  0
   -9.5853    2.8603    9.1327 S   0  0  2  0  0  6  0  0  0  0  0  0
  -11.4566    2.0865    7.9536 H   0  0  0  0  0  0  0  0  0  0  0  0
  -11.1351    3.7735    7.6313 H   0  0  0  0  0  0  0  0  0  0  0  0
  -11.8867    3.2996    9.1355 H   0  0  0  0  0  0  0  0  0  0  0  0
   -8.6040    6.1625    0.6320 H   0  0  0  0  0  0  0  0  0  0  0  0
   -7.4720    5.1104   -0.1828 H   0  0  0  0  0  0  0  0  0  0  0  0
   -7.2889    5.4355    1.5241 H   0  0  0  0  0  0  0  0  0  0  0  0
   -7.0404    3.2240    1.4777 H   0  0  0  0  0  0  0  0  0  0  0  0
   -8.5028    2.3174    1.9209 H   0  0  0  0  0  0  0  0  0  0  0  0
   -7.5476    1.1403    0.1384 H   0  0  0  0  0  0  0  0  0  0  0  0
   -7.2763    2.6082   -0.7788 H   0  0  0  0  0  0  0  0  0  0  0  0
   -9.3582    1.0673   -1.3023 H   0  0  0  0  0  0  0  0  0  0  0  0
   -9.5057    2.7922   -1.3899 H   0  0  0  0  0  0  0  0  0  0  0  0
   -8.0012    1.0296    1.0820 H   0  0  0  0  0  0  0  0  0  0  0  0
   -7.0680    1.0821    3.2921 H   0  0  0  0  0  0  0  0  0  0  0  0
   -4.8474    3.7770    8.6796 H   0  0  0  0  0  0  0  0  0  0  0  0
   -3.3198    2.9765    8.2293 H   0  0  0  0  0  0  0  0  0  0  0  0
   -3.1772    4.0518    6.2375 H   0  0  0  0  0  0  0  0  0  0  0  0
   -3.8590    5.2961    7.2828 H   0  0  0  0  0  0  0  0  0  0  0  0
   -5.9214    5.1985    6.2858 H   0  0  0  0  0  0  0  0  0  0  0  0
   -5.7267    3.5460    5.7784 H   0  0  0  0  0  0  0  0  0  0  0  0
   -3.3413    3.4485    4.1502 H   0  0  0  0  0  0  0  0  0  0  0  0
   -2.9522    4.8533    1.9989 H   0  0  0  0  0  0  0  0  0  0  0  0
   -4.5486    6.8978    2.1112 H   0  0  0  0  0  0  0  0  0  0  0  0
   -6.1357    1.8489    5.0010 H   0  0  0  0  0  0  0  0  0  0  0  0
  -10.5493    2.9130    4.7023 H   0  0  0  0  0  0  0  0  0  0  0  0
  -11.4713    2.8827    2.4796 H   0  0  0  0  0  0  0  0  0  0  0  0
  -10.1785    5.2852    2.1377 H   0  0  0  0  0  0  0  0  0  0  0  0
   -8.9092    4.5375    3.0776 H   0  0  0  0  0  0  0  0  0  0  0  0
  -10.2337    3.5713    2.4733 H   0  0  0  0  0  0  0  0  0  0  0  0
   -4.5277    1.2793    7.3996 H   0  0  0  0  0  0  0  0  0  0  0  0
  1  2  1  0
  9 10  1  0
 10 11  1  0
 12 13  4  0
 13 14  4  0
  1 14  4  0
 15 16  1  0
 16 17  1  0
 18 19  4  0
 19 20  4  0
  2 21  4  0
  7 21  4  0
  1 22  4  0
 12 23  4  0
 22 23  4  0
 24 25  1  0
  8 25  1  0
  9 25  1  0
  2 26  4  0
  3 26  4  0
  7 27  4  0
  3 27  4  0
 15 28  1  0
  7 28  1  0
 17 29  1  0
 18 29  4  0
 20 30  4  0
 29 30  4  0
 11 31  1  0
 12 31  1  0
  3 32  1  0
 32  4  1  6
  6 32  2  0
  5 32  2  0
  4 33  1  0
  4 34  1  0
  4 35  1  0
  8 36  1  0
  8 37  1  0
  8 38  1  0
  9 39  1  0
  9 40  1  0
 10 41  1  0
 10 42  1  0
 11 43  1  0
 11 44  1  0
 13 45  1  0
 14 46  1  0
 15 47  1  0
 15 48  1  0
 16 49  1  0
 16 50  1  0
 17 51  1  0
 17 52  1  0
 18 53  1  0
 19 54  1  0
 20 55  1  0
 21 56  1  0
 22 57  1  0
 23 58  1  0
 24 59  1  0
 24 60  1  0
 24 61  1  0
 28 62  1  0
M  CHG  1  29   1
M  END
