7UEY_N0R_A_403
     RDKit          3D

 27 29  0  0  0  0  0  0  0  0999 V2000
  -23.3761   17.5473   -9.3784 C   0  0  0  0  0  0  0  0  0  0  0  0
  -22.5748   17.8434  -10.6265 C   0  0  0  0  0  0  0  0  0  0  0  0
  -25.3199   18.6267  -10.3670 C   0  0  0  0  0  0  0  0  0  0  0  0
  -24.5067   18.8989  -11.6101 C   0  0  0  0  0  0  0  0  0  0  0  0
  -28.4671   17.7033   -5.3012 C   0  0  0  0  0  0  0  0  0  0  0  0
  -27.2599   18.3808   -5.4221 C   0  0  0  0  0  0  0  0  0  0  0  0
  -26.2638   17.8300   -6.2059 C   0  0  0  0  0  0  0  0  0  0  0  0
  -26.4681   16.6307   -6.8554 C   0  0  0  0  0  0  0  0  0  0  0  0
  -25.3499   16.0677   -7.7082 C   0  0  0  0  0  0  0  0  0  0  0  0
  -25.5690   16.4780   -9.1623 C   0  0  0  0  0  0  0  0  0  0  0  0
  -22.3105   20.0367  -11.8297 C   0  0  0  0  0  0  0  0  0  0  0  0
  -20.9129   21.7824  -13.1354 C   0  0  0  0  0  0  0  0  0  0  0  0
  -20.1856   20.7232  -12.6106 C   0  0  0  0  0  0  0  0  0  0  0  0
  -20.9427   19.7763  -11.9033 C   0  0  0  0  0  0  0  0  0  0  0  0
  -29.4640   19.1595   -3.4351 C   0  0  0  0  0  0  0  0  0  0  0  0
  -28.1201   19.1754   -2.7079 C   0  0  0  0  0  0  0  0  0  0  0  0
  -27.6711   15.9636   -6.7468 C   0  0  0  0  0  0  0  0  0  0  0  0
  -28.6765   16.5094   -5.9681 C   0  0  0  0  0  0  0  0  0  0  0  0
  -24.7636   17.5542   -9.6412 N   0  0  0  0  0  0  0  0  0  0  0  0
  -23.1265   19.1180  -11.1282 N   0  0  0  0  0  0  0  0  0  0  0  0
  -22.9168   21.0587  -12.3401 N   0  0  0  0  0  0  0  0  0  0  0  0
  -22.1906   21.9358  -13.0124 N   0  0  0  0  0  0  0  0  0  0  0  0
  -29.5672   18.2274   -4.5254 N   0  0  0  0  0  0  0  0  0  0  0  0
  -30.3723   19.8583   -3.1349 O   0  0  0  0  0  0  0  0  0  0  0  0
  -27.2320   19.9131   -3.5106 O   0  0  0  0  0  0  0  0  0  0  0  0
  -26.3474   15.9654   -9.8815 O   0  0  0  0  0  0  0  0  0  0  0  0
  -20.0467   23.0154  -14.0400 Cl  0  0  0  0  0  0  0  0  0  0  0  0
  1  2  1  0
  3  4  1  0
  5  6  2  0
  6  7  1  0
  7  8  2  0
  8  9  1  0
  9 10  1  0
 12 13  2  0
 13 14  1  0
 11 14  2  0
 15 16  1  0
  8 17  1  0
 17 18  2  0
  5 18  1  0
  1 19  1  0
  3 19  1  0
 10 19  1  0
 11 20  1  0
  2 20  1  0
  4 20  1  0
 11 21  1  0
 12 22  1  0
 21 22  2  0
  5 23  1  0
 15 23  1  0
 15 24  2  0
 16 25  1  0
 10 26  2  0
 12 27  1  0
M  END
