2BR1_PFP_A_1277
     RDKit          3D

 50 53  0  0  0  0  0  0  0  0999 V2000
    5.3696   -5.1435    2.6237 C   0  0  0  0  0  0  0  0  0  0  0  0
    4.6943   -3.8979    2.4825 O   0  0  0  0  0  0  0  0  0  0  0  0
    3.3106   -3.7646    2.2948 C   0  0  0  0  0  0  0  0  0  0  0  0
    2.5815   -3.0190    3.2288 C   0  0  0  0  0  0  0  0  0  0  0  0
    1.2008   -2.8584    3.0871 C   0  0  0  0  0  0  0  0  0  0  0  0
    2.6356   -4.3528    1.2075 C   0  0  0  0  0  0  0  0  0  0  0  0
    1.2549   -4.1887    1.0634 C   0  0  0  0  0  0  0  0  0  0  0  0
    0.5315   -3.4346    1.9977 C   0  0  0  0  0  0  0  0  0  0  0  0
   -0.9277   -3.2796    1.8566 C   0  0  0  0  0  0  0  0  0  0  0  0
   -1.8567   -3.0103    2.8519 C   0  0  0  0  0  0  0  0  0  0  0  0
   -1.7829   -2.7607    4.2287 C   0  0  0  0  0  0  0  0  0  0  0  0
   -0.5331   -2.6384    4.9207 N   0  0  0  0  0  0  0  0  0  0  0  0
   -0.0493   -3.6969    5.8055 C   0  0  0  0  0  0  0  0  0  0  0  0
   -1.1358   -4.1173    6.7974 C   0  0  0  0  0  0  0  0  0  0  0  0
   -1.4436   -3.0559    7.6593 O   0  0  0  0  0  0  0  0  0  0  0  0
   -2.9588   -2.5660    4.8984 N   0  0  0  0  0  0  0  0  0  0  0  0
   -4.1664   -2.5844    4.2553 C   0  0  0  0  0  0  0  0  0  0  0  0
   -4.2282   -2.7842    2.9072 N   0  0  0  0  0  0  0  0  0  0  0  0
   -3.0735   -2.9905    2.2312 C   0  0  0  0  0  0  0  0  0  0  0  0
   -2.9633   -3.1975    0.9440 O   0  0  0  0  0  0  0  0  0  0  0  0
   -1.6827   -3.3826    0.6781 C   0  0  0  0  0  0  0  0  0  0  0  0
   -1.1887   -3.6655   -0.6868 C   0  0  0  0  0  0  0  0  0  0  0  0
   -0.3543   -4.7644   -0.9530 C   0  0  0  0  0  0  0  0  0  0  0  0
    0.0938   -5.0147   -2.2532 C   0  0  0  0  0  0  0  0  0  0  0  0
   -0.2994   -4.1768   -3.3135 C   0  0  0  0  0  0  0  0  0  0  0  0
    0.1256   -4.3841   -4.6342 O   0  0  0  0  0  0  0  0  0  0  0  0
    1.3572   -5.0011   -4.9945 C   0  0  0  0  0  0  0  0  0  0  0  0
   -1.1494   -3.0973   -3.0497 C   0  0  0  0  0  0  0  0  0  0  0  0
   -1.5974   -2.8465   -1.7497 C   0  0  0  0  0  0  0  0  0  0  0  0
    6.4542   -4.9545    2.7582 H   0  0  0  0  0  0  0  0  0  0  0  0
    5.2265   -5.7609    1.7119 H   0  0  0  0  0  0  0  0  0  0  0  0
    4.9895   -5.6848    3.5158 H   0  0  0  0  0  0  0  0  0  0  0  0
    3.0880   -2.5641    4.0707 H   0  0  0  0  0  0  0  0  0  0  0  0
    0.6532   -2.2839    3.8243 H   0  0  0  0  0  0  0  0  0  0  0  0
    3.1676   -4.9377    0.4699 H   0  0  0  0  0  0  0  0  0  0  0  0
    0.7495   -4.6476    0.2222 H   0  0  0  0  0  0  0  0  0  0  0  0
    0.0126   -1.7530    4.8394 H   0  0  0  0  0  0  0  0  0  0  0  0
    0.2550   -4.5770    5.1984 H   0  0  0  0  0  0  0  0  0  0  0  0
    0.8349   -3.3262    6.3681 H   0  0  0  0  0  0  0  0  0  0  0  0
   -0.7682   -4.9711    7.4055 H   0  0  0  0  0  0  0  0  0  0  0  0
   -2.0475   -4.4498    6.2498 H   0  0  0  0  0  0  0  0  0  0  0  0
   -2.0091   -2.4247    7.1417 H   0  0  0  0  0  0  0  0  0  0  0  0
   -5.0763   -2.4237    4.8167 H   0  0  0  0  0  0  0  0  0  0  0  0
   -0.0661   -5.4462   -0.1646 H   0  0  0  0  0  0  0  0  0  0  0  0
    0.7380   -5.8664   -2.4240 H   0  0  0  0  0  0  0  0  0  0  0  0
    2.2102   -4.4148   -4.5918 H   0  0  0  0  0  0  0  0  0  0  0  0
    1.4376   -5.0316   -6.1004 H   0  0  0  0  0  0  0  0  0  0  0  0
    1.3910   -6.0411   -4.6067 H   0  0  0  0  0  0  0  0  0  0  0  0
   -1.4646   -2.4488   -3.8574 H   0  0  0  0  0  0  0  0  0  0  0  0
   -2.2527   -2.0025   -1.5714 H   0  0  0  0  0  0  0  0  0  0  0  0
  1  2  1  0
  2  3  1  0
  3  4  4  0
  4  5  4  0
  3  6  4  0
  6  7  4  0
  5  8  4  0
  7  8  4  0
  8  9  1  0
  9 10  4  0
 10 11  4  0
 11 12  1  0
 12 13  1  0
 13 14  1  0
 14 15  1  0
 11 16  4  0
 16 17  4  0
 17 18  4  0
 10 19  4  0
 18 19  4  0
 19 20  4  0
  9 21  4  0
 20 21  4  0
 21 22  1  0
 22 23  4  0
 23 24  4  0
 24 25  4  0
 25 26  1  0
 26 27  1  0
 25 28  4  0
 22 29  4  0
 28 29  4  0
  1 30  1  0
  1 31  1  0
  1 32  1  0
  4 33  1  0
  5 34  1  0
  6 35  1  0
  7 36  1  0
 12 37  1  0
 13 38  1  0
 13 39  1  0
 14 40  1  0
 14 41  1  0
 15 42  1  0
 17 43  1  0
 23 44  1  0
 24 45  1  0
 27 46  1  0
 27 47  1  0
 27 48  1  0
 28 49  1  0
 29 50  1  0
M  END
