7DQL_4CL_A_302
     RDKit          3D

 14 14  0  0  0  0  0  0  0  0999 V2000
   11.2759   -3.3625   -1.2094 Cl  0  0  0  0  0  0  0  0  0  0  0  0
   11.0768   -4.9798   -1.8593 C   0  0  0  0  0  0  0  0  0  0  0  0
   10.8859   -6.0625   -0.9953 C   0  0  0  0  0  0  0  0  0  0  0  0
   10.7272   -7.3515   -1.5122 C   0  0  0  0  0  0  0  0  0  0  0  0
   10.7585   -7.5651   -2.8982 C   0  0  0  0  0  0  0  0  0  0  0  0
   10.6001   -8.8509   -3.4128 O   0  0  0  0  0  0  0  0  0  0  0  0
   10.9504   -6.4757   -3.7670 C   0  0  0  0  0  0  0  0  0  0  0  0
   11.1088   -5.1872   -3.2424 C   0  0  0  0  0  0  0  0  0  0  0  0
   10.9865   -6.6537   -5.1495 O   0  0  0  0  0  0  0  0  0  0  0  0
   10.8605   -5.9070    0.0758 H   0  0  0  0  0  0  0  0  0  0  0  0
   10.5801   -8.1836   -0.8355 H   0  0  0  0  0  0  0  0  0  0  0  0
   10.4605   -9.6513   -2.8072 H   0  0  0  0  0  0  0  0  0  0  0  0
   11.2565   -4.3485   -3.9112 H   0  0  0  0  0  0  0  0  0  0  0  0
   10.8770   -7.5653   -5.5774 H   0  0  0  0  0  0  0  0  0  0  0  0
  1  2  1  0
  2  3  4  0
  3  4  4  0
  4  5  4  0
  5  6  1  0
  5  7  4  0
  2  8  4  0
  7  8  4  0
  7  9  1  0
  3 10  1  0
  4 11  1  0
  6 12  1  0
  8 13  1  0
  9 14  1  0
M  END
