7SGV_L30_A_501
     RDKit          3D

 31 33  0  0  0  0  0  0  0  0999 V2000
   -1.7795   73.1824   36.3039 O   0  0  0  0  0  0  0  0  0  0  0  0
   -1.4346   74.2953   36.7888 C   0  0  0  0  0  0  0  0  0  0  0  0
   -2.3846   75.4326   36.7524 C   0  0  0  0  0  0  0  0  0  0  0  0
   -2.0180   76.7060   37.2214 C   0  0  0  0  0  0  0  0  0  0  0  0
   -2.9346   77.7582   37.1840 C   0  0  0  0  0  0  0  0  0  0  0  0
   -4.2165   77.5321   36.6828 C   0  0  0  0  0  0  0  0  0  0  0  0
   -4.5651   76.2957   36.2408 N   0  0  0  0  0  0  0  0  0  0  0  0
   -3.6922   75.2534   36.2667 C   0  0  0  0  0  0  0  0  0  0  0  0
   -0.1213   74.4461   37.3531 N   0  0  0  0  0  0  0  0  0  0  0  0
    0.6379   73.3222   37.8240 C   0  0  0  0  0  0  0  0  0  0  0  0
    2.0095   73.2740   37.5392 C   0  0  0  0  0  0  0  0  0  0  0  0
    2.7823   72.1840   37.9401 C   0  0  0  0  0  0  0  0  0  0  0  0
    2.1996   71.1295   38.6424 C   0  0  0  0  0  0  0  0  0  0  0  0
    0.8364   71.1663   38.9688 C   0  0  0  0  0  0  0  0  0  0  0  0
    0.2585   70.1165   39.6998 C   0  0  0  0  0  0  0  0  0  0  0  0
   -1.0906   70.1660   40.0545 C   0  0  0  0  0  0  0  0  0  0  0  0
   -1.8707   71.2645   39.6925 C   0  0  0  0  0  0  0  0  0  0  0  0
   -1.3118   72.3163   38.9621 C   0  0  0  0  0  0  0  0  0  0  0  0
    0.0421   72.2754   38.5714 C   0  0  0  0  0  0  0  0  0  0  0  0
   -1.0354   76.8882   37.6358 H   0  0  0  0  0  0  0  0  0  0  0  0
   -2.6554   78.7393   37.5461 H   0  0  0  0  0  0  0  0  0  0  0  0
   -4.9364   78.3388   36.6490 H   0  0  0  0  0  0  0  0  0  0  0  0
   -4.0181   74.2886   35.9000 H   0  0  0  0  0  0  0  0  0  0  0  0
    0.3942   75.3385   37.1829 H   0  0  0  0  0  0  0  0  0  0  0  0
    2.4755   74.0778   36.9829 H   0  0  0  0  0  0  0  0  0  0  0  0
    3.8373   72.1542   37.7004 H   0  0  0  0  0  0  0  0  0  0  0  0
    2.8171   70.2908   38.9416 H   0  0  0  0  0  0  0  0  0  0  0  0
    0.8519   69.2619   40.0030 H   0  0  0  0  0  0  0  0  0  0  0  0
   -1.5300   69.3552   40.6211 H   0  0  0  0  0  0  0  0  0  0  0  0
   -2.9125   71.3042   39.9838 H   0  0  0  0  0  0  0  0  0  0  0  0
   -1.9424   73.1614   38.7218 H   0  0  0  0  0  0  0  0  0  0  0  0
  1  2  2  0
  2  3  1  0
  3  4  2  0
  4  5  1  0
  5  6  2  0
  6  7  1  0
  7  8  2  0
  3  8  1  0
  2  9  1  0
  9 10  1  0
 10 11  2  0
 11 12  1  0
 12 13  2  0
 13 14  1  0
 14 15  2  0
 15 16  1  0
 16 17  2  0
 17 18  1  0
 18 19  2  0
 14 19  1  0
 10 19  1  0
  4 20  1  0
  5 21  1  0
  6 22  1  0
  8 23  1  0
  9 24  1  0
 11 25  1  0
 12 26  1  0
 13 27  1  0
 15 28  1  0
 16 29  1  0
 17 30  1  0
 18 31  1  0
M  END
