7UJ5_DGL_B_301
     RDKit          3D

 10  9  0  0  0  0  0  0  0  0999 V2000
  -16.1551    2.1827  -25.7828 N   0  0  0  0  0  0  0  0  0  0  0  0
  -16.5420    0.9003  -26.3740 C   0  0  1  0  0  0  0  0  0  0  0  0
  -17.4568    0.1437  -25.4314 C   0  0  0  0  0  0  0  0  0  0  0  0
  -17.6921    0.6513  -24.3177 O   0  0  0  0  0  0  0  0  0  0  0  0
  -17.2834    1.1647  -27.6843 C   0  0  0  0  0  0  0  0  0  0  0  0
  -16.3393    1.2279  -28.8691 C   0  0  0  0  0  0  0  0  0  0  0  0
  -15.4143    0.0034  -28.8995 C   0  0  0  0  0  0  0  0  0  0  0  0
  -15.9047   -1.1135  -29.2565 O   0  0  0  0  0  0  0  0  0  0  0  0
  -14.2138    0.1521  -28.5499 O   0  0  0  0  0  0  0  0  0  0  0  0
  -17.9722   -0.9442  -25.7701 O   0  0  0  0  0  0  0  0  0  0  0  0
  2  1  1  1
  2  3  1  0
  3  4  2  0
  2  5  1  0
  5  6  1  0
  6  7  1  0
  7  8  2  0
  7  9  1  0
  3 10  1  0
M  END
