7B0E_C2E_A_401
     RDKit          3D

 46 52  0  0  0  0  0  0  0  0999 V2000
  -35.7020   -5.2315  -26.3639 P   0  0  1  0  0  0  0  0  0  0  0  0
  -35.5602   -3.7231  -25.5555 O   0  0  0  0  0  0  0  0  0  0  0  0
  -35.9263   -6.2211  -25.2439 O   0  0  0  0  0  0  0  0  0  0  0  0
  -37.0124   -5.0675  -27.3692 O   0  0  0  0  0  0  0  0  0  0  0  0
  -37.6416   -6.2152  -27.7558 C   0  0  0  0  0  0  0  0  0  0  0  0
  -38.4490   -6.9170  -26.7128 C   0  0  1  0  0  0  0  0  0  0  0  0
  -39.8224   -6.5785  -26.7613 O   0  0  0  0  0  0  0  0  0  0  0  0
  -38.4056   -8.4100  -27.0651 C   0  0  1  0  0  0  0  0  0  0  0  0
  -37.7513   -9.1439  -26.1067 O   0  0  0  0  0  0  0  0  0  0  0  0
  -39.8858   -8.7956  -26.9546 C   0  0  1  0  0  0  0  0  0  0  0  0
  -40.0706  -10.0388  -26.4008 O   0  0  0  0  0  0  0  0  0  0  0  0
  -40.3448   -7.6743  -26.0344 C   0  0  2  0  0  0  0  0  0  0  0  0
  -41.7821   -7.6332  -25.9705 N   0  0  0  0  0  0  0  0  0  0  0  0
  -42.6594   -7.4262  -26.9638 C   0  0  0  0  0  0  0  0  0  0  0  0
  -43.9162   -7.4686  -26.4629 N   0  0  0  0  0  0  0  0  0  0  0  0
  -43.8314   -7.7041  -25.1436 C   0  0  0  0  0  0  0  0  0  0  0  0
  -44.7218   -7.8553  -24.1009 C   0  0  0  0  0  0  0  0  0  0  0  0
  -45.9579   -7.7696  -24.3317 O   0  0  0  0  0  0  0  0  0  0  0  0
  -44.2599   -8.0900  -22.8639 N   0  0  0  0  0  0  0  0  0  0  0  0
  -42.9623   -8.1889  -22.5709 C   0  0  0  0  0  0  0  0  0  0  0  0
  -42.5063   -8.4373  -21.2550 N   0  0  0  0  0  0  0  0  0  0  0  0
  -42.0799   -8.0463  -23.5633 N   0  0  0  0  0  0  0  0  0  0  0  0
  -42.4823   -7.8081  -24.8322 C   0  0  0  0  0  0  0  0  0  0  0  0
  -36.4696   -9.9638  -26.8323 P   0  0  2  0  0  0  0  0  0  0  0  0
  -36.2901   -9.5804  -28.4632 O   0  0  0  0  0  0  0  0  0  0  0  0
  -36.7738  -11.4387  -26.7187 O   0  0  0  0  0  0  0  0  0  0  0  0
  -35.0641   -9.5520  -25.9926 O   0  0  0  0  0  0  0  0  0  0  0  0
  -34.0841   -9.0808  -26.8313 C   0  0  0  0  0  0  0  0  0  0  0  0
  -33.5838   -7.6968  -26.3944 C   0  0  1  0  0  0  0  0  0  0  0  0
  -32.2097   -7.8065  -26.2558 O   0  0  0  0  0  0  0  0  0  0  0  0
  -33.9115   -6.7359  -27.4681 C   0  0  1  0  0  0  0  0  0  0  0  0
  -34.2339   -5.4624  -27.1089 O   0  0  0  0  0  0  0  0  0  0  0  0
  -32.5717   -6.6394  -28.2129 C   0  0  1  0  0  0  0  0  0  0  0  0
  -32.3737   -5.3939  -28.7619 O   0  0  0  0  0  0  0  0  0  0  0  0
  -31.6229   -6.8451  -27.0600 C   0  0  2  0  0  0  0  0  0  0  0  0
  -30.3261   -7.3539  -27.4668 N   0  0  0  0  0  0  0  0  0  0  0  0
  -30.0470   -8.1900  -28.5093 C   0  0  0  0  0  0  0  0  0  0  0  0
  -28.7399   -8.4378  -28.5709 N   0  0  0  0  0  0  0  0  0  0  0  0
  -28.1295   -7.7865  -27.5915 C   0  0  0  0  0  0  0  0  0  0  0  0
  -26.8004   -7.7276  -27.2456 C   0  0  0  0  0  0  0  0  0  0  0  0
  -25.9536   -8.3664  -27.9141 O   0  0  0  0  0  0  0  0  0  0  0  0
  -26.4807   -6.9669  -26.1811 N   0  0  0  0  0  0  0  0  0  0  0  0
  -27.4420   -6.2967  -25.4943 C   0  0  0  0  0  0  0  0  0  0  0  0
  -26.9944   -5.5242  -24.3886 N   0  0  0  0  0  0  0  0  0  0  0  0
  -28.7485   -6.3668  -25.8506 N   0  0  0  0  0  0  0  0  0  0  0  0
  -29.1208   -7.1097  -26.9023 C   0  0  0  0  0  0  0  0  0  0  0  0
  1  2  1  1
  1  3  2  0
  1  4  1  0
  4  5  1  0
  6  5  1  6
  6  7  1  0
  6  8  1  0
  8  9  1  1
  8 10  1  0
 10 11  1  1
 10 12  1  0
  7 12  1  0
 12 13  1  6
 13 14  1  0
 14 15  2  0
 15 16  1  0
 16 17  1  0
 17 18  2  0
 17 19  1  0
 19 20  1  0
 20 21  1  0
 20 22  2  0
 13 23  1  0
 22 23  1  0
 16 23  2  0
  9 24  1  0
 24 25  1  6
 24 26  2  0
 24 27  1  0
 27 28  1  0
 29 28  1  6
 29 30  1  0
 29 31  1  0
 31 32  1  1
  1 32  1  0
 31 33  1  0
 33 34  1  1
 30 35  1  0
 33 35  1  0
 35 36  1  6
 36 37  1  0
 37 38  2  0
 38 39  1  0
 39 40  1  0
 40 41  2  0
 40 42  1  0
 42 43  1  0
 43 44  1  0
 43 45  2  0
 36 46  1  0
 39 46  2  0
 45 46  1  0
M  END
$$$$
