7T9O_GEI_A_304
     RDKit          3D

 41 44  0  0  0  0  0  0  0  0999 V2000
    5.0096   30.0970    7.9129 C   0  0  2  0  0  0  0  0  0  0  0  0
    4.8592   29.8775    6.4238 C   0  0  0  0  0  0  0  0  0  0  0  0
    3.3568   29.8328    6.1408 C   0  0  0  0  0  0  0  0  0  0  0  0
    4.1005   29.1635    8.6816 C   0  0  0  0  0  0  0  0  0  0  0  0
    3.6354   28.0127    7.7729 C   0  0  0  0  0  0  0  0  0  0  0  0
    4.5535   31.5331    8.1747 C   0  0  0  0  0  0  0  0  0  0  0  0
    6.4472   29.9833    8.3121 C   0  0  0  0  0  0  0  0  0  0  0  0
    4.2447   24.6713    3.5455 C   0  0  2  0  0  0  0  0  0  0  0  0
    4.0963   23.4025    2.7110 C   0  0  0  0  0  0  0  0  0  0  0  0
    0.5312   29.8637    6.4873 C   0  0  0  0  0  0  0  0  0  0  0  0
    3.3956   25.1285    6.6975 C   0  0  0  0  0  0  0  0  0  0  0  0
    0.1052   35.5822    9.6032 C   0  0  0  0  0  0  0  0  0  0  0  0
    0.8036   30.9939    5.7329 C   0  0  0  0  0  0  0  0  0  0  0  0
    0.3423   34.1064    9.3701 C   0  0  0  0  0  0  0  0  0  0  0  0
    0.6880   28.5670    5.8628 C   0  0  0  0  0  0  0  0  0  0  0  0
   -0.4081   28.0400    5.2136 C   0  0  0  0  0  0  0  0  0  0  0  0
   -0.2616   26.8370    4.6332 N   0  0  0  0  0  0  0  0  0  0  0  0
    0.9075   26.1453    4.6686 C   0  0  0  0  0  0  0  0  0  0  0  0
    2.0335   26.6225    5.3020 C   0  0  0  0  0  0  0  0  0  0  0  0
    1.9133   27.8731    5.9168 C   0  0  0  0  0  0  0  0  0  0  0  0
    2.9383   28.4916    6.6348 N   0  0  0  0  0  0  0  0  0  0  0  0
    3.3013   25.8378    5.3718 C   0  0  2  0  0  0  0  0  0  0  0  0
    0.8962   24.8292    3.9659 C   0  0  0  0  0  0  0  0  0  0  0  0
   -1.7096   28.7595    5.1472 C   0  0  0  0  0  0  0  0  0  0  0  0
    4.5934   24.8105    7.3060 O   0  0  0  0  0  0  0  0  0  0  0  0
    3.2494   24.8005    4.4477 O   0  0  0  0  0  0  0  0  0  0  0  0
    2.3131   24.8261    7.2515 O   0  0  0  0  0  0  0  0  0  0  0  0
    3.9748   25.8054    2.5153 C   0  0  0  0  0  0  0  0  0  0  0  0
    5.6391   24.9019    3.9979 C   0  0  0  0  0  0  0  0  0  0  0  0
    0.6755   32.2656    6.2529 C   0  0  0  0  0  0  0  0  0  0  0  0
    0.2626   32.4080    7.5670 C   0  0  0  0  0  0  0  0  0  0  0  0
   -0.0123   31.2904    8.3316 C   0  0  0  0  0  0  0  0  0  0  0  0
    0.1183   30.0198    7.8029 C   0  0  0  0  0  0  0  0  0  0  0  0
    0.1480   33.7008    8.0461 O   0  0  0  0  0  0  0  0  0  0  0  0
    0.1624   35.9084   11.0557 C   0  0  0  0  0  0  0  0  0  0  0  0
    1.3867   36.2116   11.6195 C   0  0  0  0  0  0  0  0  0  0  0  0
    1.4087   36.5099   12.9651 C   0  0  0  0  0  0  0  0  0  0  0  0
    0.2906   36.5210   13.7637 C   0  0  0  0  0  0  0  0  0  0  0  0
   -0.9188   36.2121   13.1635 C   0  0  0  0  0  0  0  0  0  0  0  0
   -0.9949   35.9067   11.8216 C   0  0  0  0  0  0  0  0  0  0  0  0
    0.3366   36.8194   15.0957 F   0  0  0  0  0  0  0  0  0  0  0  0
  1  2  1  0
  2  3  1  0
  1  4  1  0
  4  5  1  0
  1  6  1  6
  1  7  1  0
  8  9  1  6
 10 13  2  0
 12 14  1  0
 10 15  1  0
 15 16  2  0
 16 17  1  0
 17 18  2  0
 18 19  1  0
 15 20  1  0
 19 20  2  0
  5 21  1  0
 20 21  1  0
  3 21  1  0
 19 22  1  0
 11 22  1  0
 18 23  1  0
 16 24  1  0
 11 25  1  0
  8 26  1  0
 22 26  1  6
 11 27  2  0
  8 28  1  0
  8 29  1  0
 13 30  1  0
 30 31  2  0
 31 32  1  0
 32 33  2  0
 10 33  1  0
 31 34  1  0
 14 34  1  0
 12 35  1  0
 35 36  2  0
 36 37  1  0
 37 38  2  0
 38 39  1  0
 39 40  2  0
 35 40  1  0
 38 41  1  0
M  END
$$$$
