7JHQ_VAJ_A_301
     RDKit          3D

 18 19  0  0  0  0  0  0  0  0999 V2000
   39.2190  -41.5810   11.1830 C   0  0  0  0  0  0  0  0  0  0  0  0
   38.6800  -41.6840   12.4600 C   0  0  0  0  0  0  0  0  0  0  0  0
   38.1610  -40.5730   13.0990 C   0  0  0  0  0  0  0  0  0  0  0  0
   38.1600  -39.3220   12.4890 C   0  0  0  0  0  0  0  0  0  0  0  0
   37.5810  -38.1350   13.1680 C   0  0  0  0  0  0  0  0  0  0  0  0
   37.4360  -35.7390   13.4530 C   0  0  0  0  0  0  0  0  0  0  0  0
   36.4720  -35.9030   14.4310 C   0  0  0  0  0  0  0  0  0  0  0  0
   34.9810  -37.3510   15.8130 C   0  0  0  0  0  0  0  0  0  0  0  0
   39.7510  -42.7830   10.4850 C   0  0  0  0  0  0  0  0  0  0  0  0
   40.6150  -42.5310    9.5440 O   0  0  0  0  0  0  0  0  0  0  0  0
   36.0470  -37.1760   14.7890 C   0  0  0  0  0  0  0  0  0  0  0  0
   36.6090  -38.2840   14.1600 C   0  0  0  0  0  0  0  0  0  0  0  0
   38.7080  -39.2260   11.2100 C   0  0  0  0  0  0  0  0  0  0  0  0
   39.2300  -40.3340   10.5670 C   0  0  0  0  0  0  0  0  0  0  0  0
   37.9850  -36.8440   12.8240 C   0  0  0  0  0  0  0  0  0  0  0  0
   39.3900  -43.9130   10.7820 O   0  0  0  0  0  0  0  0  0  0  0  0
   34.2420  -36.4280   16.1260 O   0  0  0  0  0  0  0  0  0  0  0  0
   34.9020  -38.5440   16.3380 O   0  0  0  0  0  0  0  0  0  0  0  0
  1  2  2  0
  2  3  1  0
  3  4  2  0
  4  5  1  0
  6  7  2  0
  1  9  1  0
  9 10  2  0
  7 11  1  0
  8 11  1  0
  5 12  1  0
 11 12  2  0
  4 13  1  0
  1 14  1  0
 13 14  2  0
  5 15  2  0
  6 15  1  0
  9 16  1  0
  8 17  2  0
  8 18  1  0
M  END
$$$$
