7R6J_2I7_B_901
     RDKit          3D

 63 66  0  0  0  0  0  0  0  0999 V2000
   -2.6640    0.8183   -0.5522 N   0  0  0  0  0  0  0  0  0  0  0  0
    5.1016   -0.7296    0.7079 N   0  0  0  0  0  0  0  0  0  0  0  0
   -2.5598   -0.6565   -0.6187 C   0  0  0  0  0  0  0  0  0  0  0  0
   -4.0433    1.2397   -0.1634 C   0  0  2  0  0  0  0  0  0  0  0  0
   -4.0540    2.7131    0.3137 C   0  0  0  0  0  0  0  0  0  0  0  0
   -2.2539    1.4059   -1.8503 C   0  0  0  0  0  0  0  0  0  0  0  0
   -0.7521    1.4451   -1.9525 C   0  0  0  0  0  0  0  0  0  0  0  0
    1.3316    0.4881   -2.7752 C   0  0  0  0  0  0  0  0  0  0  0  0
    0.9496   -3.1711   -1.0453 C   0  0  0  0  0  0  0  0  0  0  0  0
    0.1021   -4.4569    0.9528 C   0  0  0  0  0  0  0  0  0  0  0  0
    3.0893   -2.1446    0.4662 C   0  0  0  0  0  0  0  0  0  0  0  0
    6.3676   -0.6678    2.7224 C   0  0  0  0  0  0  0  0  0  0  0  0
    5.4748   -1.5824    3.2761 C   0  0  0  0  0  0  0  0  0  0  0  0
    2.9292   -1.7820   -0.8857 C   0  0  0  0  0  0  0  0  0  0  0  0
    1.3767    2.3626   -1.2332 C   0  0  0  0  0  0  0  0  0  0  0  0
   -4.6601    0.3144    0.9423 C   0  0  2  0  0  0  0  0  0  0  0  0
    2.0435   -0.5910   -3.5465 C   0  0  0  0  0  0  0  0  0  0  0  0
    1.8593   -2.2873   -1.6445 C   0  0  0  0  0  0  0  0  0  0  0  0
    1.0949   -3.5425    0.2988 C   0  0  0  0  0  0  0  0  0  0  0  0
    2.1566   -3.0210    1.0499 C   0  0  0  0  0  0  0  0  0  0  0  0
    4.2314   -1.6215    1.2594 C   0  0  0  0  0  0  0  0  0  0  0  0
    6.1580   -0.2483    1.4116 C   0  0  0  0  0  0  0  0  0  0  0  0
   -3.5756   -0.4454    1.7248 C   0  0  1  0  0  0  0  0  0  0  0  0
    2.0516    1.4228   -2.0155 C   0  0  0  0  0  0  0  0  0  0  0  0
   -0.0191    2.3688   -1.1916 C   0  0  0  0  0  0  0  0  0  0  0  0
   -2.6892   -1.2910    0.7820 C   0  0  1  0  0  0  0  0  0  0  0  0
   -0.0710    0.5161   -2.7534 C   0  0  0  0  0  0  0  0  0  0  0  0
    1.6760   -1.9090   -3.0226 N   0  0  0  0  0  0  0  0  0  0  0  0
    4.4293   -2.0393    2.5403 N   0  0  0  0  0  0  0  0  0  0  0  0
   -5.5352   -0.6184    0.3596 O   0  0  0  0  0  0  0  0  0  0  0  0
   -2.7873    0.4720    2.4387 O   0  0  0  0  0  0  0  0  0  0  0  0
   -3.2365   -2.5782    0.6663 O   0  0  0  0  0  0  0  0  0  0  0  0
   -3.0081    2.9533    1.2143 O   0  0  0  0  0  0  0  0  0  0  0  0
   -1.5752   -0.9715   -1.0297 H   0  0  0  0  0  0  0  0  0  0  0  0
   -3.3432   -1.0615   -1.3022 H   0  0  0  0  0  0  0  0  0  0  0  0
   -4.7094    1.1904   -1.0555 H   0  0  0  0  0  0  0  0  0  0  0  0
   -3.9644    3.4012   -0.5522 H   0  0  0  0  0  0  0  0  0  0  0  0
   -5.0250    2.9580    0.7960 H   0  0  0  0  0  0  0  0  0  0  0  0
   -2.6097    2.4497   -1.9616 H   0  0  0  0  0  0  0  0  0  0  0  0
   -2.6992    0.8444   -2.7029 H   0  0  0  0  0  0  0  0  0  0  0  0
    0.1172   -3.5538   -1.6220 H   0  0  0  0  0  0  0  0  0  0  0  0
   -0.5554   -3.8688    1.6293 H   0  0  0  0  0  0  0  0  0  0  0  0
    0.6318   -5.2272    1.5513 H   0  0  0  0  0  0  0  0  0  0  0  0
   -0.5262   -4.9745    0.1983 H   0  0  0  0  0  0  0  0  0  0  0  0
    7.2047   -0.2907    3.2967 H   0  0  0  0  0  0  0  0  0  0  0  0
    5.6135   -1.9312    4.2892 H   0  0  0  0  0  0  0  0  0  0  0  0
    3.6457   -1.1186   -1.3504 H   0  0  0  0  0  0  0  0  0  0  0  0
    1.9381    3.0764   -0.6440 H   0  0  0  0  0  0  0  0  0  0  0  0
   -5.2402    0.9093    1.6860 H   0  0  0  0  0  0  0  0  0  0  0  0
    3.1463   -0.4639   -3.5184 H   0  0  0  0  0  0  0  0  0  0  0  0
    1.7392   -0.5223   -4.6123 H   0  0  0  0  0  0  0  0  0  0  0  0
    2.2511   -3.3076    2.0893 H   0  0  0  0  0  0  0  0  0  0  0  0
    6.8353    0.4596    0.9522 H   0  0  0  0  0  0  0  0  0  0  0  0
   -4.0867   -1.1180    2.4549 H   0  0  0  0  0  0  0  0  0  0  0  0
    3.1335    1.4117   -2.0128 H   0  0  0  0  0  0  0  0  0  0  0  0
   -0.5298    3.0861   -0.5609 H   0  0  0  0  0  0  0  0  0  0  0  0
   -1.6721   -1.3718    1.2331 H   0  0  0  0  0  0  0  0  0  0  0  0
   -0.6301   -0.2139   -3.3270 H   0  0  0  0  0  0  0  0  0  0  0  0
    1.0963   -2.5256   -3.6364 H   0  0  0  0  0  0  0  0  0  0  0  0
   -6.3539   -0.1173    0.1007 H   0  0  0  0  0  0  0  0  0  0  0  0
   -2.3118   -0.0449    3.1449 H   0  0  0  0  0  0  0  0  0  0  0  0
   -2.5426   -3.1496    0.2491 H   0  0  0  0  0  0  0  0  0  0  0  0
   -3.0578    3.9187    1.4427 H   0  0  0  0  0  0  0  0  0  0  0  0
  1  3  1  0
  1  4  1  0
  4  5  1  0
  1  6  1  0
  6  7  1  0
 12 13  1  0
 11 14  2  0
  4 16  1  0
  8 17  1  0
 14 18  1  0
  9 18  2  0
  9 19  1  0
 10 19  1  0
 11 20  1  0
 19 20  2  0
  2 21  2  0
 11 21  1  0
 12 22  2  0
  2 22  1  0
 16 23  1  0
  8 24  1  0
 15 24  2  0
  7 25  2  0
 15 25  1  0
 23 26  1  0
  3 26  1  0
  7 27  1  0
  8 27  2  0
 17 28  1  0
 18 28  1  0
 13 29  2  0
 21 29  1  0
 16 30  1  0
 23 31  1  0
 26 32  1  0
  5 33  1  0
  3 34  1  0
  3 35  1  0
  4 36  1  6
  5 37  1  0
  5 38  1  0
  6 39  1  0
  6 40  1  0
  9 41  1  0
 10 42  1  0
 10 43  1  0
 10 44  1  0
 12 45  1  0
 13 46  1  0
 14 47  1  0
 15 48  1  0
 16 49  1  1
 17 50  1  0
 17 51  1  0
 20 52  1  0
 22 53  1  0
 23 54  1  1
 24 55  1  0
 25 56  1  0
 26 57  1  1
 27 58  1  0
 28 59  1  0
 30 60  1  0
 31 61  1  0
 32 62  1  0
 33 63  1  0
M  END
