1YVF_PH7_A_800
     RDKit          3D

 28 30  0  0  0  0  0  0  0  0999 V2000
   -8.7251   58.8408   55.2784 C   0  0  0  0  0  0  0  0  0  0  0  0
   -7.7037   58.6227   54.4105 C   0  0  0  0  0  0  0  0  0  0  0  0
   -7.7850   58.6175   52.9429 N   0  0  0  0  0  0  0  0  0  0  0  0
   -8.2560   57.5681   52.2102 C   0  0  0  0  0  0  0  0  0  0  0  0
   -8.1471   56.3941   52.5595 O   0  0  0  0  0  0  0  0  0  0  0  0
  -10.1598   59.0570   55.0204 C   0  0  0  0  0  0  0  0  0  0  0  0
  -11.0985   59.2512   56.0575 C   0  0  0  0  0  0  0  0  0  0  0  0
  -12.9289   59.2566   54.4253 C   0  0  0  0  0  0  0  0  0  0  0  0
  -10.6324   58.9811   53.7213 C   0  0  0  0  0  0  0  0  0  0  0  0
  -11.9787   59.0784   53.4178 C   0  0  0  0  0  0  0  0  0  0  0  0
  -14.7551   59.5836   52.8276 C   0  0  0  0  0  0  0  0  0  0  0  0
  -15.1805   58.4706   52.0755 C   0  0  0  0  0  0  0  0  0  0  0  0
  -15.7115   58.6452   50.7671 C   0  0  0  0  0  0  0  0  0  0  0  0
  -15.8577   59.9416   50.2347 C   0  0  0  0  0  0  0  0  0  0  0  0
  -15.4765   61.0693   50.9907 C   0  0  0  0  0  0  0  0  0  0  0  0
  -14.9205   60.8824   52.2692 C   0  0  0  0  0  0  0  0  0  0  0  0
   -6.3371   58.4500   54.9776 C   0  0  0  0  0  0  0  0  0  0  0  0
   -6.2311   58.3360   56.2163 O   0  0  0  0  0  0  0  0  0  0  0  0
   -5.3368   58.4907   54.2280 O   0  0  0  0  0  0  0  0  0  0  0  0
   -8.9261   57.9592   50.9742 C   0  0  0  0  0  0  0  0  0  0  0  0
   -8.4715   57.4435   49.7433 C   0  0  0  0  0  0  0  0  0  0  0  0
   -9.2350   57.6460   48.5800 C   0  0  0  0  0  0  0  0  0  0  0  0
  -10.4563   58.3656   48.6517 C   0  0  0  0  0  0  0  0  0  0  0  0
  -10.8864   58.9353   49.8731 C   0  0  0  0  0  0  0  0  0  0  0  0
  -10.1088   58.7506   51.0306 C   0  0  0  0  0  0  0  0  0  0  0  0
  -12.4845   59.3091   55.7534 C   0  0  0  0  0  0  0  0  0  0  0  0
  -14.2705   59.4020   54.1343 O   0  0  0  0  0  0  0  0  0  0  0  0
  -15.1892   56.7883   52.8873 Br  0  0  0  0  0  0  0  0  0  0  0  0
  1  2  2  0
  2  3  1  0
  3  4  1  0
  4  5  2  0
  1  6  1  0
  6  7  2  0
  6  9  1  0
  8 10  1  0
  9 10  2  0
 11 12  2  0
 12 13  1  0
 13 14  2  0
 14 15  1  0
 11 16  1  0
 15 16  2  0
  2 17  1  0
 17 18  1  0
 17 19  2  0
  4 20  1  0
 20 21  2  0
 21 22  1  0
 22 23  2  0
 23 24  1  0
 20 25  1  0
 24 25  2  0
  7 26  1  0
  8 26  2  0
  8 27  1  0
 11 27  1  0
 12 28  1  0
M  END
