7DQL_4CL_B_301
     RDKit          3D

  9  9  0  0  0  0  0  0  0  0999 V2000
    9.5506    7.9064   12.6291 Cl  0  0  0  0  0  0  0  0  0  0  0  0
    8.1664    6.8803   12.3823 C   0  0  0  0  0  0  0  0  0  0  0  0
    8.3297    5.6680   11.7441 C   0  0  0  0  0  0  0  0  0  0  0  0
    7.2293    4.8493   11.5614 C   0  0  0  0  0  0  0  0  0  0  0  0
    5.9766    5.2381   12.0256 C   0  0  0  0  0  0  0  0  0  0  0  0
    4.8879    4.4389   11.8673 O   0  0  0  0  0  0  0  0  0  0  0  0
    5.8311    6.4721   12.6698 C   0  0  0  0  0  0  0  0  0  0  0  0
    6.9309    7.3003   12.8394 C   0  0  0  0  0  0  0  0  0  0  0  0
    4.6073    6.8327   13.1379 O   0  0  0  0  0  0  0  0  0  0  0  0
  1  2  1  0
  2  3  2  0
  3  4  1  0
  4  5  2  0
  5  6  1  0
  5  7  1  0
  2  8  1  0
  7  8  2  0
  7  9  1  0
M  END
