6WTN_RXT_A_1204
     RDKit          3D

 23 26  0  0  0  0  0  0  0  0999 V2000
   24.8789   10.7494    4.2234 C   0  0  0  0  0  0  0  0  0  0  0  0
   26.1920    9.9630    4.6486 C   0  0  0  0  0  0  0  0  0  0  0  0
   26.0609    9.7574    6.2195 C   0  0  0  0  0  0  0  0  0  0  0  0
   24.6145   10.0096    6.5499 C   0  0  0  0  0  0  0  0  0  0  0  0
   24.0032   10.9197    5.4773 C   0  0  1  0  0  0  0  0  0  0  0  0
   24.0341   12.3774    5.8979 C   0  0  1  0  0  0  0  0  0  0  0  0
   23.6282   13.2078    4.6758 C   0  0  0  0  0  0  0  0  0  0  0  0
   23.2265   14.5426    5.0936 C   0  0  0  0  0  0  0  0  0  0  0  0
   22.8772   15.5925    5.3597 N   0  0  0  0  0  0  0  0  0  0  0  0
   22.9985   12.6732    6.9016 N   0  0  0  0  0  0  0  0  0  0  0  0
   23.1189   13.5311    7.9361 C   0  0  0  0  0  0  0  0  0  0  0  0
   21.6916   12.1917    6.8834 N   0  0  0  0  0  0  0  0  0  0  0  0
   21.0450   12.7305    7.9191 C   0  0  0  0  0  0  0  0  0  0  0  0
   21.9173   13.5456    8.5983 C   0  0  0  0  0  0  0  0  0  0  0  0
   21.5804   14.3942    9.7690 C   0  0  0  0  0  0  0  0  0  0  0  0
   20.2824   14.4426   10.0352 N   0  0  0  0  0  0  0  0  0  0  0  0
   19.8881   15.2371   11.0637 C   0  0  0  0  0  0  0  0  0  0  0  0
   20.6579   16.0080   11.8153 N   0  0  0  0  0  0  0  0  0  0  0  0
   21.9816   15.9771   11.5385 C   0  0  0  0  0  0  0  0  0  0  0  0
   22.4742   15.2120   10.5295 C   0  0  0  0  0  0  0  0  0  0  0  0
   23.8358   15.4085   10.4896 C   0  0  0  0  0  0  0  0  0  0  0  0
   24.1500   16.2957   11.4875 C   0  0  0  0  0  0  0  0  0  0  0  0
   23.0051   16.6385   12.1135 N   0  0  0  0  0  0  0  0  0  0  0  0
  1  2  1  0
  2  3  1  0
  3  4  1  0
  5  4  1  1
  1  5  1  0
  5  6  1  0
  6  7  1  6
  7  8  1  0
  8  9  3  0
  6 10  1  0
 10 11  1  0
 10 12  1  0
 12 13  2  0
 13 14  1  0
 11 14  2  0
 14 15  1  0
 15 16  2  0
 16 17  1  0
 17 18  2  0
 18 19  1  0
 15 20  1  0
 19 20  2  0
 20 21  1  0
 21 22  2  0
 19 23  1  0
 22 23  1  0
M  END
