7XG5_PLP_A_401
     RDKit          3D

 26 26  0  0  0  0  0  0  0  0999 V2000
  -35.6906  -44.2473   23.9143 N   0  0  0  0  0  0  0  0  0  0  0  0
  -36.7912  -44.0305   24.6782 C   0  0  0  0  0  0  0  0  0  0  0  0
  -37.7692  -45.1470   24.8824 C   0  0  2  0  0  0  0  0  0  0  0  0
  -37.0202  -42.7623   25.2360 C   0  0  0  0  0  0  0  0  0  0  0  0
  -38.2001  -42.5530   25.9581 O   0  0  0  0  0  0  0  0  0  0  0  0
  -36.0712  -41.7311   25.0279 C   0  0  0  0  0  0  0  0  0  0  0  0
  -36.2572  -40.4058   25.6552 C   0  0  0  0  0  0  0  0  0  0  0  0
  -37.3535  -40.0963   26.1921 O   0  0  0  0  0  0  0  0  0  0  0  0
  -34.9340  -41.9949   24.2214 C   0  0  0  0  0  0  0  0  0  0  0  0
  -34.7773  -43.2755   23.6735 C   0  0  0  0  0  0  0  0  0  0  0  0
  -33.8366  -40.9799   23.9688 C   0  0  2  0  0  0  0  0  0  0  0  0
  -32.5971  -41.4375   24.4667 O   0  0  0  0  0  0  0  0  0  0  0  0
  -32.3027  -40.7494   26.0034 P   0  0  2  0  0  5  0  0  0  0  0  0
  -33.5307  -40.0094   26.4854 O   0  0  0  0  0  0  0  0  0  0  0  0
  -30.9863  -39.6860   25.9400 O   0  0  0  0  0  0  0  0  0  0  0  0
  -31.9465  -41.9915   27.0956 O   0  0  0  0  0  0  0  0  0  0  0  0
  -37.8409  -45.3941   25.9626 H   0  0  0  0  0  0  0  0  0  0  0  0
  -37.4445  -46.0566   24.3337 H   0  0  0  0  0  0  0  0  0  0  0  0
  -38.7688  -44.8430   24.5070 H   0  0  0  0  0  0  0  0  0  0  0  0
  -38.5034  -41.6448   26.2828 H   0  0  0  0  0  0  0  0  0  0  0  0
  -35.4421  -39.6964   25.6876 H   0  0  0  0  0  0  0  0  0  0  0  0
  -33.9140  -43.5068   23.0622 H   0  0  0  0  0  0  0  0  0  0  0  0
  -34.0754  -39.9537   24.3135 H   0  0  0  0  0  0  0  0  0  0  0  0
  -33.7328  -40.8743   22.8682 H   0  0  0  0  0  0  0  0  0  0  0  0
  -30.6153  -39.7968   25.0284 H   0  0  0  0  0  0  0  0  0  0  0  0
  -31.1527  -42.4439   26.7132 H   0  0  0  0  0  0  0  0  0  0  0  0
  1  2  2  0
  2  3  1  0
  2  4  1  0
  4  5  1  0
  4  6  2  0
  6  7  1  0
  7  8  2  0
  6  9  1  0
  1 10  1  0
  9 10  2  0
  9 11  1  0
 11 12  1  0
 13 12  1  6
 13 14  2  0
 13 15  1  0
 13 16  1  0
  3 17  1  1
  3 18  1  0
  3 19  1  0
  5 20  1  0
  7 21  1  0
 10 22  1  0
 11 23  1  1
 11 24  1  0
 15 25  1  0
 16 26  1  0
M  END
