1G9V_RQ3_A_801
     RDKit          3D

 25 26  0  0  0  0  0  0  0  0999 V2000
    3.6995   26.0256   64.3499 C   0  0  0  0  0  0  0  0  0  0  0  0
    2.9151   25.3669   65.3090 O   0  0  0  0  0  0  0  0  0  0  0  0
    4.2439   27.0781   64.7174 O   0  0  0  0  0  0  0  0  0  0  0  0
    3.7832   25.3921   63.0263 C   0  0  2  0  0  0  0  0  0  0  0  0
    2.3780   25.3158   62.3831 C   0  0  0  0  0  0  0  0  0  0  0  0
    4.3081   23.9496   63.1850 C   0  0  0  0  0  0  0  0  0  0  0  0
    4.5856   26.0184   62.0961 O   0  0  0  0  0  0  0  0  0  0  0  0
    4.7389   25.6326   60.8120 C   0  0  0  0  0  0  0  0  0  0  0  0
    3.8125   26.1204   59.8758 C   0  0  0  0  0  0  0  0  0  0  0  0
    3.8631   25.8049   58.5518 C   0  0  0  0  0  0  0  0  0  0  0  0
    4.8361   24.9822   58.0576 C   0  0  0  0  0  0  0  0  0  0  0  0
    5.7097   24.8085   60.2995 C   0  0  0  0  0  0  0  0  0  0  0  0
    5.7659   24.4825   58.9468 C   0  0  0  0  0  0  0  0  0  0  0  0
    4.9738   24.5861   56.6412 C   0  0  0  0  0  0  0  0  0  0  0  0
    3.9906   23.5457   56.2962 C   0  0  0  0  0  0  0  0  0  0  0  0
    3.2343   23.0925   57.2229 O   0  0  0  0  0  0  0  0  0  0  0  0
    3.8534   23.0256   54.9628 N   0  0  0  0  0  0  0  0  0  0  0  0
    2.9050   21.9823   54.7873 C   0  0  0  0  0  0  0  0  0  0  0  0
    1.8260   21.7805   55.6199 C   0  0  0  0  0  0  0  0  0  0  0  0
    0.9382   20.7568   55.4125 C   0  0  0  0  0  0  0  0  0  0  0  0
    1.0929   19.8705   54.3420 C   0  0  0  0  0  0  0  0  0  0  0  0
    3.0735   21.1141   53.7219 C   0  0  0  0  0  0  0  0  0  0  0  0
    2.1796   20.0656   53.4957 C   0  0  0  0  0  0  0  0  0  0  0  0
   -0.2489   20.5229   56.3116 C   0  0  0  0  0  0  0  0  0  0  0  0
    2.3569   19.1245   52.3543 C   0  0  0  0  0  0  0  0  0  0  0  0
  1  2  1  0
  1  3  2  0
  1  4  1  0
  4  5  1  6
  4  6  1  0
  4  7  1  0
  7  8  1  0
  8  9  2  0
  9 10  1  0
 10 11  2  0
  8 12  1  0
 11 13  1  0
 12 13  2  0
 11 14  1  0
 14 15  1  0
 15 16  2  0
 15 17  1  0
 17 18  1  0
 18 19  2  0
 19 20  1  0
 20 21  2  0
 18 22  1  0
 21 23  1  0
 22 23  2  0
 20 24  1  0
 23 25  1  0
M  END
$$$$
