1G9V_RQ3_A_801
     RDKit          3D

 25 26  0  0  0  0  0  0  0  0999 V2000
    3.6411   27.2521   61.3326 C   0  0  0  0  0  0  0  0  0  0  0  0
    4.8142   27.7195   61.9445 O   0  0  0  0  0  0  0  0  0  0  0  0
    2.5957   27.3732   61.9895 O   0  0  0  0  0  0  0  0  0  0  0  0
    3.7893   26.6758   59.9887 C   0  0  2  0  0  0  0  0  0  0  0  0
    4.1107   25.1656   60.0899 C   0  0  0  0  0  0  0  0  0  0  0  0
    4.9691   27.3616   59.2682 C   0  0  0  0  0  0  0  0  0  0  0  0
    2.6935   26.7689   59.1570 O   0  0  0  0  0  0  0  0  0  0  0  0
    2.6613   26.3870   57.8630 C   0  0  0  0  0  0  0  0  0  0  0  0
    3.1162   27.3087   56.9058 C   0  0  0  0  0  0  0  0  0  0  0  0
    3.1350   27.0400   55.5708 C   0  0  0  0  0  0  0  0  0  0  0  0
    2.7042   25.8371   55.0854 C   0  0  0  0  0  0  0  0  0  0  0  0
    2.2329   25.1841   57.3593 C   0  0  0  0  0  0  0  0  0  0  0  0
    2.2498   24.9041   55.9953 C   0  0  0  0  0  0  0  0  0  0  0  0
    2.6891   25.4539   53.6589 C   0  0  0  0  0  0  0  0  0  0  0  0
    3.1605   24.0692   53.4894 C   0  0  0  0  0  0  0  0  0  0  0  0
    3.3711   23.6395   52.3033 O   0  0  0  0  0  0  0  0  0  0  0  0
    3.3898   23.1904   54.6040 N   0  0  0  0  0  0  0  0  0  0  0  0
    3.9196   21.9082   54.2976 C   0  0  0  0  0  0  0  0  0  0  0  0
    4.3493   21.5375   53.0422 C   0  0  0  0  0  0  0  0  0  0  0  0
    4.8507   20.2862   52.7932 C   0  0  0  0  0  0  0  0  0  0  0  0
    4.9462   19.3297   53.8088 C   0  0  0  0  0  0  0  0  0  0  0  0
    4.0071   20.9734   55.3153 C   0  0  0  0  0  0  0  0  0  0  0  0
    4.5145   19.6941   55.0800 C   0  0  0  0  0  0  0  0  0  0  0  0
    5.3277   19.8646   51.4268 C   0  0  0  0  0  0  0  0  0  0  0  0
    4.6073   18.6814   56.1688 C   0  0  0  0  0  0  0  0  0  0  0  0
  1  2  1  0
  1  3  2  0
  1  4  1  0
  4  5  1  1
  4  6  1  0
  4  7  1  0
  7  8  1  0
  8  9  2  0
  9 10  1  0
 10 11  2  0
  8 12  1  0
 11 13  1  0
 12 13  2  0
 11 14  1  0
 14 15  1  0
 15 16  2  0
 15 17  1  0
 17 18  1  0
 18 19  2  0
 19 20  1  0
 20 21  2  0
 18 22  1  0
 21 23  1  0
 22 23  2  0
 20 24  1  0
 23 25  1  0
M  END
$$$$
