7K41_VUA_A_2602
     RDKit          3D

 22 24  0  0  0  0  0  0  0  0999 V2000
  -12.6061  -10.6122   10.4510 N   0  0  0  0  0  0  0  0  0  0  0  0
  -12.8806   -6.6047   11.1789 N   0  0  0  0  0  0  0  0  0  0  0  0
   -9.8730   -9.9228   11.5101 C   0  0  0  0  0  0  0  0  0  0  0  0
   -9.3064   -8.5829   13.3960 C   0  0  0  0  0  0  0  0  0  0  0  0
  -12.7646   -8.4019    9.6046 C   0  0  0  0  0  0  0  0  0  0  0  0
  -12.6778   -9.7586    9.4270 C   0  0  0  0  0  0  0  0  0  0  0  0
   -9.8378   -9.7523   12.8829 C   0  0  0  0  0  0  0  0  0  0  0  0
  -12.6184  -10.1279   11.6932 C   0  0  0  0  0  0  0  0  0  0  0  0
  -13.1575   -5.5808   10.1703 C   0  0  0  0  0  0  0  0  0  0  0  0
  -14.3598   -4.3766   12.0280 C   0  0  2  0  0  0  0  0  0  0  0  0
  -10.3898  -10.8142   13.7873 C   0  0  0  0  0  0  0  0  0  0  0  0
   -8.8570   -7.7596   11.2033 C   0  0  0  0  0  0  0  0  0  0  0  0
   -9.3842   -8.9345   10.6762 C   0  0  0  0  0  0  0  0  0  0  0  0
   -8.8185   -7.5847   12.5726 C   0  0  0  0  0  0  0  0  0  0  0  0
  -12.7921   -7.9848   10.9181 C   0  0  0  0  0  0  0  0  0  0  0  0
  -14.4093   -4.8362   10.5833 C   0  0  0  0  0  0  0  0  0  0  0  0
  -14.0496   -5.5308   12.9520 C   0  0  0  0  0  0  0  0  0  0  0  0
  -12.7047   -6.1074   12.5336 C   0  0  0  0  0  0  0  0  0  0  0  0
  -15.6856   -3.8206   12.4287 C   0  0  0  0  0  0  0  0  0  0  0  0
  -11.9180  -10.6272   13.9371 C   0  0  0  0  0  0  0  0  0  0  0  0
  -12.7278   -8.8168   11.9637 N   0  0  0  0  0  0  0  0  0  0  0  0
  -12.5023  -11.0871   12.7009 N   0  0  0  0  0  0  0  0  0  0  0  0
  5  6  1  0
  1  6  2  0
  4  7  1  0
  3  7  2  0
  1  8  1  0
  2  9  1  0
  7 11  1  0
 12 13  2  0
  3 13  1  0
  4 14  2  0
 12 14  1  0
  2 15  1  0
  5 15  2  0
 10 16  1  0
  9 16  1  0
 10 17  1  0
 17 18  1  0
  2 18  1  0
 10 19  1  1
 11 20  1  0
 15 21  1  0
  8 21  2  0
 20 22  1  0
  8 22  1  0
M  END
