
     RDKit          3D

 14 15  0  0  0  0  0  0  0  0999 V2000
   36.6952   57.6954   78.3688 C   0  0  0  0  0  0  0  0  0  0  0  0
   36.4273   57.8933   76.9837 C   0  0  0  0  0  0  0  0  0  0  0  0
   37.4844   57.8664   76.0563 C   0  0  0  0  0  0  0  0  0  0  0  0
   38.7939   57.6627   76.4760 C   0  0  0  0  0  0  0  0  0  0  0  0
   39.0673   57.4784   77.8279 C   0  0  0  0  0  0  0  0  0  0  0  0
   38.0375   57.4900   78.7795 C   0  0  0  0  0  0  0  0  0  0  0  0
   38.3368   57.2955   80.1382 C   0  0  0  0  0  0  0  0  0  0  0  0
   37.3317   57.2979   81.1030 C   0  0  0  0  0  0  0  0  0  0  0  0
   36.0122   57.4943   80.7203 C   0  0  0  0  0  0  0  0  0  0  0  0
   35.6981   57.6899   79.3728 C   0  0  0  0  0  0  0  0  0  0  0  0
   35.0249   58.1153   76.4542 C   0  0  0  0  0  0  0  0  0  0  0  0
   34.7365   59.5512   76.0930 C   0  0  0  0  0  0  0  0  0  0  0  0
   35.2372   60.5605   76.5589 O   0  0  0  0  0  0  0  0  0  0  0  0
   33.7563   59.6537   75.1691 O   0  0  0  0  0  0  0  0  0  0  0  0
  1  2  4  0
  2  3  4  0
  3  4  4  0
  4  5  4  0
  1  6  4  0
  5  6  4  0
  6  7  4  0
  7  8  4  0
  8  9  4  0
  1 10  4  0
  9 10  4  0
  2 11  1  0
 11 12  1  0
 12 13  2  0
 12 14  1  0
M  END
