7WQQ_5Z6_A_501
     RDKit          3D

 27 28  0  0  0  0  0  0  0  0999 V2000
   18.8374    8.2932   -0.0481 C   0  0  0  0  0  0  0  0  0  0  0  0
   18.6107    5.5862    1.0703 C   0  0  0  0  0  0  0  0  0  0  0  0
   17.3006    3.6304    1.3614 C   0  0  0  0  0  0  0  0  0  0  0  0
   16.5217    5.4350    0.0077 C   0  0  0  0  0  0  0  0  0  0  0  0
   20.2460   11.6154   -1.1917 C   0  0  0  0  0  0  0  0  0  0  0  0
   21.2724   12.5284   -0.9784 C   0  0  0  0  0  0  0  0  0  0  0  0
   22.7323   14.3685   -1.7024 C   0  0  0  0  0  0  0  0  0  0  0  0
   20.2624   14.7439   -1.4889 C   0  0  0  0  0  0  0  0  0  0  0  0
   24.3370   11.8045    1.7108 C   0  0  0  0  0  0  0  0  0  0  0  0
   23.1334   10.9027    1.8340 C   0  0  2  0  0  0  0  0  0  0  0  0
   22.4447   11.0654    3.1727 C   0  0  0  0  0  0  0  0  0  0  0  0
   23.5905    9.4404    1.7631 C   0  0  0  0  0  0  0  0  0  0  0  0
   22.1204   11.1557    0.7702 C   0  0  0  0  0  0  0  0  0  0  0  0
   21.0890   10.2654    0.5357 C   0  0  0  0  0  0  0  0  0  0  0  0
   20.1351   10.4661   -0.4380 C   0  0  0  0  0  0  0  0  0  0  0  0
   19.0475    9.5706   -0.7172 C   0  0  0  0  0  0  0  0  0  0  0  0
   17.8486    7.4890   -0.3248 C   0  0  0  0  0  0  0  0  0  0  0  0
   17.6489    6.1708    0.2444 C   0  0  0  0  0  0  0  0  0  0  0  0
   18.4499    4.3392    1.6241 C   0  0  0  0  0  0  0  0  0  0  0  0
   17.1274    2.3087    1.9470 C   0  0  0  0  0  0  0  0  0  0  0  0
   16.3201    4.1630    0.5521 C   0  0  0  0  0  0  0  0  0  0  0  0
   21.3667   13.7712   -1.8155 C   0  0  2  0  0  0  0  0  0  0  0  0
   21.1579   13.3330   -3.2509 C   0  0  0  0  0  0  0  0  0  0  0  0
   22.1930   12.2896   -0.0052 C   0  0  0  0  0  0  0  0  0  0  0  0
   18.2137    9.8989   -1.5958 O   0  0  0  0  0  0  0  0  0  0  0  0
   18.0115    1.8259    2.6976 O   0  0  0  0  0  0  0  0  0  0  0  0
   16.0027    1.5421    1.7061 O   0  0  0  0  0  0  0  0  0  0  0  0
  5  6  2  0
 10  9  1  1
 10 11  1  0
 10 12  1  0
 10 13  1  0
 13 14  1  0
  5 15  1  0
 14 15  2  0
 15 16  1  0
  1 16  1  0
  1 17  2  0
 17 18  1  0
  4 18  1  0
  2 18  2  0
  2 19  1  0
  3 19  2  0
  3 20  1  0
  4 21  2  0
  3 21  1  0
 22  7  1  6
  8 22  1  0
  6 22  1  0
 22 23  1  0
  6 24  1  0
 13 24  2  0
 16 25  2  0
 20 26  2  0
 20 27  1  0
M  END
$$$$
