
     RDKit          3D

 16 16  0  0  0  0  0  0  0  0999 V2000
   12.2425  -20.9456  -18.9662 C   0  0  0  0  0  0  0  0  0  0  0  0
   10.1380  -22.0426  -19.7998 C   0  0  2  0  0  0  0  0  0  0  0  0
    9.1725  -23.2125  -19.6122 C   0  0  1  0  0  0  0  0  0  0  0  0
    8.8292  -23.3987  -18.1328 C   0  0  2  0  0  0  0  0  0  0  0  0
   11.0921  -25.5135  -16.5014 C   0  0  0  0  0  0  0  0  0  0  0  0
   10.1192  -23.5048  -17.3004 C   0  0  1  0  0  0  0  0  0  0  0  0
   11.3641  -22.1904  -18.8828 C   0  0  2  0  0  0  0  0  0  0  0  0
   10.7749  -24.7298  -17.6473 O   0  0  0  0  0  0  0  0  0  0  0  0
   10.9736  -22.3729  -17.5004 O   0  0  0  0  0  0  0  0  0  0  0  0
   13.9688  -21.3684  -18.8254 S   0  0  0  0  0  6  0  0  0  0  0  0
   14.7610  -20.1768  -19.0264 O   0  0  0  0  0  0  0  0  0  0  0  0
   14.2209  -22.5895  -19.5586 O   0  0  0  0  0  0  0  0  0  0  0  0
   13.9930  -21.7302  -17.2473 O   0  0  0  0  0  0  0  0  0  0  0  0
    9.4456  -20.8229  -19.4986 O   0  0  0  0  0  0  0  0  0  0  0  0
    7.9694  -22.9425  -20.3520 O   0  0  0  0  0  0  0  0  0  0  0  0
    8.0165  -24.5779  -18.0018 O   0  0  0  0  0  0  0  0  0  0  0  0
  2  3  1  0
  3  4  1  0
  4  6  1  0
  7  1  1  1
  2  7  1  0
  6  8  1  6
  5  8  1  0
  7  9  1  0
  6  9  1  0
  1 10  1  0
 10 11  2  0
 10 12  2  0
 10 13  1  0
  2 14  1  1
  3 15  1  6
  4 16  1  6
M  END
