7BCP_GCO_A_401
     RDKit          3D

 13 12  0  0  0  0  0  0  0  0999 V2000
  -22.0980    2.7970   -2.8740 C   0  0  0  0  0  0  0  0  0  0  0  0
  -21.5110    3.3930   -4.1450 C   0  0  1  0  0  0  0  0  0  0  0  0
  -20.1120    4.0030   -4.0330 C   0  0  2  0  0  0  0  0  0  0  0  0
  -20.3220    5.3930   -3.4180 C   0  0  1  0  0  0  0  0  0  0  0  0
  -18.9660    6.0400   -3.1560 C   0  0  1  0  0  0  0  0  0  0  0  0
  -18.4610    6.6420   -4.4580 C   0  0  0  0  0  0  0  0  0  0  0  0
  -22.0430    1.5390   -2.6920 O   0  0  0  0  0  0  0  0  0  0  0  0
  -22.6290    3.5470   -2.0250 O   0  0  0  0  0  0  0  0  0  0  0  0
  -21.5170    2.2870   -5.0380 O   0  0  0  0  0  0  0  0  0  0  0  0
  -19.6290    4.0730   -5.3460 O   0  0  0  0  0  0  0  0  0  0  0  0
  -21.1690    6.1970   -4.2300 O   0  0  0  0  0  0  0  0  0  0  0  0
  -19.0760    7.1330   -2.2410 O   0  0  0  0  0  0  0  0  0  0  0  0
  -17.1820    7.1690   -4.1620 O   0  0  0  0  0  0  0  0  0  0  0  0
  1  2  1  0
  2  3  1  0
  3  4  1  0
  4  5  1  0
  5  6  1  0
  1  7  2  0
  1  8  1  0
  2  9  1  6
  3 10  1  6
  4 11  1  6
  5 12  1  1
  6 13  1  0
M  END
$$$$
