
     RDKit          3D

 37 41  0  0  0  0  0  0  0  0999 V2000
   32.7668   24.5747   47.3436 C   0  0  0  0  0  0  0  0  0  0  0  0
   31.9468   25.3704   46.5426 C   0  0  0  0  0  0  0  0  0  0  0  0
   30.5821   25.0753   46.3829 C   0  0  0  0  0  0  0  0  0  0  0  0
   30.1388   23.9392   47.0658 C   0  0  0  0  0  0  0  0  0  0  0  0
   30.9050   23.1445   47.8569 N   0  0  0  0  0  0  0  0  0  0  0  0
   32.2034   23.4833   47.9780 C   0  0  0  0  0  0  0  0  0  0  0  0
   29.6989   25.9087   45.5384 C   0  0  0  0  0  0  0  0  0  0  0  0
   30.0175   27.1890   45.1295 C   0  0  0  0  0  0  0  0  0  0  0  0
   29.0810   27.8336   44.3588 C   0  0  0  0  0  0  0  0  0  0  0  0
   27.9090   27.2870   44.0055 N   0  0  0  0  0  0  0  0  0  0  0  0
   27.6655   26.0359   44.4219 C   0  0  0  0  0  0  0  0  0  0  0  0
   28.5306   25.3299   45.1682 N   0  0  0  0  0  0  0  0  0  0  0  0
   26.5034   25.3589   44.0630 N   0  0  0  0  0  0  0  0  0  0  0  0
   25.3396   25.7392   43.3736 C   0  0  0  0  0  0  0  0  0  0  0  0
   24.1857   26.1154   44.0928 C   0  0  0  0  0  0  0  0  0  0  0  0
   23.0108   26.4514   43.3987 C   0  0  0  0  0  0  0  0  0  0  0  0
   22.9579   26.4037   42.0046 C   0  0  0  0  0  0  0  0  0  0  0  0
   24.0779   26.0168   41.2806 C   0  0  0  0  0  0  0  0  0  0  0  0
   25.2503   25.6804   41.9728 C   0  0  0  0  0  0  0  0  0  0  0  0
   24.1236   25.9480   39.8733 N   0  0  0  0  0  0  0  0  0  0  0  0
   24.9423   25.1545   39.0910 C   0  0  0  0  0  0  0  0  0  0  0  0
   24.7525   25.3375   37.6263 C   0  0  0  0  0  0  0  0  0  0  0  0
   24.0870   26.4597   37.1163 C   0  0  0  0  0  0  0  0  0  0  0  0
   23.9165   26.6033   35.7365 C   0  0  0  0  0  0  0  0  0  0  0  0
   24.3991   25.6248   34.8549 C   0  0  0  0  0  0  0  0  0  0  0  0
   25.0578   24.5003   35.3792 C   0  0  0  0  0  0  0  0  0  0  0  0
   25.2250   24.3508   36.7575 C   0  0  0  0  0  0  0  0  0  0  0  0
   24.2206   25.7851   33.3572 C   0  0  0  0  0  0  0  0  0  0  0  0
   23.5186   27.0218   32.9833 N   0  0  0  0  0  0  0  0  0  0  0  0
   22.8049   26.8412   31.7035 C   0  0  0  0  0  0  0  0  0  0  0  0
   22.0836   28.1302   31.2486 C   0  0  0  0  0  0  0  0  0  0  0  0
   23.0099   29.2731   31.1245 N   0  0  0  0  0  0  0  0  0  0  0  0
   22.2868   30.4902   30.7629 C   0  0  0  0  0  0  0  0  0  0  0  0
   23.7305   29.4556   32.3997 C   0  0  0  0  0  0  0  0  0  0  0  0
   24.4507   28.1641   32.8549 C   0  0  0  0  0  0  0  0  0  0  0  0
   25.7876   24.3555   39.4724 O   0  0  0  0  0  0  0  0  0  0  0  0
   24.1728   26.1670   45.5976 C   0  0  0  0  0  0  0  0  0  0  0  0
  1  2  4  0
  2  3  4  0
  3  4  4  0
  4  5  4  0
  1  6  4  0
  5  6  4  0
  3  7  1  0
  7  8  4  0
  8  9  4  0
  9 10  4  0
 10 11  4  0
  7 12  4  0
 11 12  4  0
 11 13  1  0
 13 14  1  0
 14 15  4  0
 15 16  4  0
 16 17  4  0
 17 18  4  0
 14 19  4  0
 18 19  4  0
 18 20  1  0
 20 21  1  0
 21 22  1  0
 22 23  4  0
 23 24  4  0
 24 25  4  0
 25 26  4  0
 22 27  4  0
 26 27  4  0
 25 28  1  0
 28 29  1  0
 29 30  1  0
 30 31  1  0
 31 32  1  0
 32 33  1  0
 32 34  1  0
 29 35  1  0
 34 35  1  0
 21 36  2  0
 15 37  1  0
M  END
