7QFM_AY3_A_402
     RDKit          3D

 31 33  0  0  0  0  0  0  0  0999 V2000
 -119.4804  204.7842    2.6306 C   0  0  0  0  0  0  0  0  0  0  0  0
 -119.0452  204.1479    3.7756 C   0  0  0  0  0  0  0  0  0  0  0  0
 -117.6681  202.4448    4.9518 C   0  0  0  0  0  0  0  0  0  0  0  0
 -118.0905  203.1436    3.7105 C   0  0  0  0  0  0  0  0  0  0  0  0
 -117.5676  202.8025    2.4694 C   0  0  0  0  0  0  0  0  0  0  0  0
 -117.9964  203.4498    1.3251 C   0  0  0  0  0  0  0  0  0  0  0  0
 -117.8025  201.2247    5.0609 O   0  0  0  0  0  0  0  0  0  0  0  0
 -118.9695  204.4472    1.3820 C   0  0  0  0  0  0  0  0  0  0  0  0
 -117.1562  203.2112    5.8809 O   0  0  0  0  0  0  0  0  0  0  0  0
 -119.4998  205.1319    0.2015 C   0  0  0  0  0  0  0  0  0  0  0  0
 -119.4528  204.7473   -1.0827 C   0  0  0  0  0  0  0  0  0  0  0  0
 -120.6222  206.6723   -2.0392 O   0  0  0  0  0  0  0  0  0  0  0  0
 -120.0373  205.6010   -2.1735 C   0  0  0  0  0  0  0  0  0  0  0  0
 -118.2461  202.4327   -1.3269 C   0  0  0  0  0  0  0  0  0  0  0  0
 -118.9002  203.5878   -1.7546 C   0  0  0  0  0  0  0  0  0  0  0  0
 -119.8100  204.9544   -3.3382 N   0  0  0  0  0  0  0  0  0  0  0  0
 -117.8458  201.4851   -2.2575 C   0  0  0  0  0  0  0  0  0  0  0  0
 -118.0855  201.6728   -3.6122 C   0  0  0  0  0  0  0  0  0  0  0  0
 -118.7350  202.8112   -4.0664 C   0  0  0  0  0  0  0  0  0  0  0  0
 -119.1369  203.7572   -3.1348 C   0  0  0  0  0  0  0  0  0  0  0  0
 -120.1974  205.5230    2.7024 H   0  0  0  0  0  0  0  0  0  0  0  0
 -119.4348  204.4225    4.6909 H   0  0  0  0  0  0  0  0  0  0  0  0
 -116.8537  202.0603    2.4009 H   0  0  0  0  0  0  0  0  0  0  0  0
 -117.5891  203.1903    0.4131 H   0  0  0  0  0  0  0  0  0  0  0  0
 -117.0805  204.1341    5.7378 H   0  0  0  0  0  0  0  0  0  0  0  0
 -119.9731  206.0310    0.3816 H   0  0  0  0  0  0  0  0  0  0  0  0
 -118.0608  202.2836   -0.3226 H   0  0  0  0  0  0  0  0  0  0  0  0
 -120.0871  205.2905   -4.2211 H   0  0  0  0  0  0  0  0  0  0  0  0
 -117.3639  200.6300   -1.9390 H   0  0  0  0  0  0  0  0  0  0  0  0
 -117.7769  200.9573   -4.2888 H   0  0  0  0  0  0  0  0  0  0  0  0
 -118.9149  202.9509   -5.0729 H   0  0  0  0  0  0  0  0  0  0  0  0
  1  2  4  0
  3  4  1  0
  2  4  4  0
  4  5  4  0
  5  6  4  0
  3  7  2  0
  1  8  4  0
  6  8  4  0
  3  9  1  0
  8 10  1  0
 10 11  2  3
 12 13  2  0
 11 13  1  0
 11 15  1  0
 14 15  4  0
 13 16  1  0
 14 17  4  0
 17 18  4  0
 18 19  4  0
 15 20  4  0
 16 20  1  0
 19 20  4  0
  1 21  1  0
  2 22  1  0
  5 23  1  0
  6 24  1  0
  9 25  1  0
 10 26  1  0
 14 27  1  0
 16 28  1  0
 17 29  1  0
 18 30  1  0
 19 31  1  0
M  END
