7AA0_R6B_BBB_201
     RDKit          3D

 26 28  0  0  0  0  0  0  0  0999 V2000
   19.6451  -16.5081   -0.5355 C   0  0  0  0  0  0  0  0  0  0  0  0
   21.4785  -14.8418   -0.8042 C   0  0  0  0  0  0  0  0  0  0  0  0
   19.1200  -17.6000    0.1527 C   0  0  0  0  0  0  0  0  0  0  0  0
   17.7687  -17.8335    0.0554 C   0  0  0  0  0  0  0  0  0  0  0  0
   20.6563  -20.6657    1.4195 C   0  0  0  0  0  0  0  0  0  0  0  0
   21.0970  -16.2392   -0.4414 C   0  0  1  0  0  0  0  0  0  0  0  0
   21.4630  -16.5806    0.9959 C   0  0  0  0  0  0  0  0  0  0  0  0
   21.3106  -18.0784    1.1534 C   0  0  0  0  0  0  0  0  0  0  0  0
   19.4803  -19.6909    1.5379 C   0  0  1  0  0  0  0  0  0  0  0  0
   19.2531  -19.5188    3.0383 C   0  0  0  0  0  0  0  0  0  0  0  0
   21.7688  -17.1680   -1.4332 C   0  0  0  0  0  0  0  0  0  0  0  0
   19.9134  -18.4663    0.9360 N   0  0  0  0  0  0  0  0  0  0  0  0
   18.8740  -15.6746   -1.2923 C   0  0  0  0  0  0  0  0  0  0  0  0
   17.0139  -16.9861   -0.7082 C   0  0  0  0  0  0  0  0  0  0  0  0
   17.5187  -15.9024   -1.3946 C   0  0  0  0  0  0  0  0  0  0  0  0
   16.6855  -15.0229   -2.1978 C   0  0  0  0  0  0  0  0  0  0  0  0
   16.9117  -13.6797   -2.3567 C   0  0  0  0  0  0  0  0  0  0  0  0
   16.0714  -12.9157   -3.1370 C   0  0  0  0  0  0  0  0  0  0  0  0
   14.9666  -13.4571   -3.7946 C   0  0  0  0  0  0  0  0  0  0  0  0
   14.7592  -14.8068   -3.6207 C   0  0  0  0  0  0  0  0  0  0  0  0
   15.5895  -15.5878   -2.8435 C   0  0  0  0  0  0  0  0  0  0  0  0
   14.0856  -12.6410   -4.6150 C   0  0  0  0  0  0  0  0  0  0  0  0
   13.1108  -13.0957   -5.3530 C   0  0  0  0  0  0  0  0  0  0  0  0
   12.3405  -12.2286   -6.2464 C   0  0  0  0  0  0  0  0  0  0  0  0
   11.8183  -11.0190   -5.8738 O   0  0  0  0  0  0  0  0  0  0  0  0
   12.1414  -12.6159   -7.4393 O   0  0  0  0  0  0  0  0  0  0  0  0
  1  3  1  0
  3  4  2  0
  6  1  1  1
  2  6  1  6
  6  7  1  0
  7  8  1  1
  5  9  1  1
 10  9  1  6
 11  6  1  6
  8 12  1  6
  9 12  1  1
  3 12  1  0
  1 13  2  0
  4 14  1  0
 13 15  1  0
 14 15  2  0
 15 16  1  0
 16 17  2  0
 17 18  1  0
 18 19  2  0
 19 20  1  0
 16 21  1  0
 20 21  2  0
 19 22  1  0
 22 23  2  0
 23 24  1  0
 24 25  1  0
 24 26  2  0
M  END
$$$$
