7F8T_FAD_A_512
     RDKit          3D

 53 58  0  0  0  0  0  0  0  0999 V2000
   16.2745   24.8095  100.2078 P   0  0  1  0  0  0  0  0  0  0  0  0
   15.5676   25.5355   99.1947 O   0  0  0  0  0  0  0  0  0  0  0  0
   15.3844   24.6563  101.5501 O   0  0  0  0  0  0  0  0  0  0  0  0
   16.7974   23.3199   99.6491 O   0  0  0  0  0  0  0  0  0  0  0  0
   17.0948   22.2730  100.5923 C   0  0  0  0  0  0  0  0  0  0  0  0
   18.4975   22.2827  100.8612 C   0  0  1  0  0  0  0  0  0  0  0  0
   19.2225   21.7677   99.7780 O   0  0  0  0  0  0  0  0  0  0  0  0
   18.9768   23.5347  101.0432 C   0  0  1  0  0  0  0  0  0  0  0  0
   18.6603   24.0479  102.3159 O   0  0  0  0  0  0  0  0  0  0  0  0
   20.3341   23.3805  100.8388 C   0  0  1  0  0  0  0  0  0  0  0  0
   20.9631   22.8090  101.9805 O   0  0  0  0  0  0  0  0  0  0  0  0
   20.4267   22.5407   99.7750 C   0  0  2  0  0  0  0  0  0  0  0  0
   20.5491   23.2497   98.6094 N   0  0  0  0  0  0  0  0  0  0  0  0
   19.5739   23.5415   97.8390 C   0  0  0  0  0  0  0  0  0  0  0  0
   20.0351   24.2403   96.7987 N   0  0  0  0  0  0  0  0  0  0  0  0
   21.4024   24.3713   96.9669 C   0  0  0  0  0  0  0  0  0  0  0  0
   22.4647   24.9569   96.2851 C   0  0  0  0  0  0  0  0  0  0  0  0
   22.2504   25.6668   95.0410 N   0  0  0  0  0  0  0  0  0  0  0  0
   23.6862   24.8734   96.7725 N   0  0  0  0  0  0  0  0  0  0  0  0
   23.9203   24.2331   97.9031 C   0  0  0  0  0  0  0  0  0  0  0  0
   22.9503   23.6493   98.6074 N   0  0  0  0  0  0  0  0  0  0  0  0
   21.6907   23.6911   98.1824 C   0  0  0  0  0  0  0  0  0  0  0  0
   23.4853   24.6317  104.7109 N   0  0  0  0  0  0  0  0  0  0  0  0
   24.0816   25.6906  105.3105 C   0  0  0  0  0  0  0  0  0  0  0  0
   23.3815   26.8167  105.5172 O   0  0  0  0  0  0  0  0  0  0  0  0
   25.3479   25.6049  105.6796 N   0  0  0  0  0  0  0  0  0  0  0  0
   26.0491   24.5175  105.5178 C   0  0  0  0  0  0  0  0  0  0  0  0
   27.3323   24.5458  105.9006 O   0  0  0  0  0  0  0  0  0  0  0  0
   25.4911   23.4509  104.8639 C   0  0  0  0  0  0  0  0  0  0  0  0
   26.2435   22.3967  104.6576 N   0  0  0  0  0  0  0  0  0  0  0  0
   25.6357   21.2600  104.3041 C   0  0  0  0  0  0  0  0  0  0  0  0
   26.3821   20.0978  104.3207 C   0  0  0  0  0  0  0  0  0  0  0  0
   25.7949   18.8994  103.9483 C   0  0  0  0  0  0  0  0  0  0  0  0
   26.6225   17.5967  103.9599 C   0  0  0  0  0  0  0  0  0  0  0  0
   24.4461   18.8907  103.5627 C   0  0  0  0  0  0  0  0  0  0  0  0
   23.7586   17.5706  103.1402 C   0  0  0  0  0  0  0  0  0  0  0  0
   23.7053   20.0564  103.5459 C   0  0  0  0  0  0  0  0  0  0  0  0
   24.2803   21.2974  103.9109 C   0  0  0  0  0  0  0  0  0  0  0  0
   23.6203   22.4214  103.9254 N   0  0  0  0  0  0  0  0  0  0  0  0
   24.1739   23.4809  104.4684 C   0  0  0  0  0  0  0  0  0  0  0  0
   22.1600   22.4718  103.5557 C   0  0  0  0  0  0  0  0  0  0  0  0
   21.9578   22.6853  102.0642 C   0  0  2  0  0  0  0  0  0  0  0  0
   23.0724   22.6109  101.4506 O   0  0  0  0  0  0  0  0  0  0  0  0
   21.3173   23.9270  101.7635 C   0  0  2  0  0  0  0  0  0  0  0  0
   20.9263   24.5249  102.9136 O   0  0  0  0  0  0  0  0  0  0  0  0
   20.2050   23.7493  100.8849 C   0  0  2  0  0  0  0  0  0  0  0  0
   20.4001   22.8808   99.9594 O   0  0  0  0  0  0  0  0  0  0  0  0
   19.9840   25.0598  100.2247 C   0  0  0  0  0  0  0  0  0  0  0  0
   19.7822   26.1780  101.1051 O   0  0  0  0  0  0  0  0  0  0  0  0
   18.2121   26.4813  101.6626 P   0  0  1  0  0  0  0  0  0  0  0  0
   17.8725   25.8175  102.9054 O   0  0  0  0  0  0  0  0  0  0  0  0
   18.1135   28.1132  101.6492 O   0  0  0  0  0  0  0  0  0  0  0  0
   17.5444   25.8213  100.3398 O   0  0  0  0  0  0  0  0  0  0  0  0
  1  2  2  0
  1  3  1  1
  1  4  1  0
  4  5  1  0
  6  5  1  6
  6  7  1  0
  6  8  1  0
  8  9  1  1
  8 10  1  0
 10 11  1  1
  7 12  1  0
 10 12  1  0
 12 13  1  6
 13 14  1  0
 14 15  2  0
 15 16  1  0
 16 17  2  0
 17 18  1  0
 17 19  1  0
 19 20  2  0
 20 21  1  0
 13 22  1  0
 16 22  1  0
 21 22  2  0
 23 24  1  0
 24 25  2  0
 24 26  1  0
 26 27  1  0
 27 28  2  0
 27 29  1  0
 29 30  2  0
 30 31  1  0
 31 32  1  0
 32 33  2  0
 33 34  1  0
 33 35  1  0
 35 36  1  0
 35 37  2  0
 31 38  2  0
 37 38  1  0
 38 39  1  0
 23 40  2  0
 29 40  1  0
 39 40  1  0
 39 41  1  0
 41 42  1  0
 42 43  1  6
 42 44  1  0
 44 45  1  1
 44 46  1  0
 46 47  1  6
 46 48  1  0
 48 49  1  0
 49 50  1  0
 50 51  2  0
 50 52  1  1
  1 53  1  0
 50 53  1  0
M  END
