7LT0_ONJ_A_301
     RDKit          3D

 48 51  0  0  0  0  0  0  0  0999 V2000
    0.7911    1.0203    2.2098 C   0  0  0  0  0  0  0  0  0  0  0  0
    0.8359    0.4713    3.4997 C   0  0  0  0  0  0  0  0  0  0  0  0
   -0.3483    0.1524    4.1705 C   0  0  0  0  0  0  0  0  0  0  0  0
   -1.5895    0.3818    3.5608 C   0  0  0  0  0  0  0  0  0  0  0  0
   -1.6393    0.9574    2.2818 C   0  0  0  0  0  0  0  0  0  0  0  0
   -0.4521    1.2966    1.6223 C   0  0  0  0  0  0  0  0  0  0  0  0
    2.0424    1.2989    1.4798 C   0  0  0  0  0  0  0  0  0  0  0  0
    2.2291    0.8611    0.1217 N   0  0  0  0  0  0  0  0  0  0  0  0
    2.9739    1.9079    2.0726 O   0  0  0  0  0  0  0  0  0  0  0  0
    3.3829    1.2549   -0.6910 C   0  0  0  0  0  0  0  0  0  0  0  0
    3.2709    0.3789   -1.8822 C   0  0  0  0  0  0  0  0  0  0  0  0
    2.1816   -0.4540   -1.7767 C   0  0  0  0  0  0  0  0  0  0  0  0
    1.4500   -0.2080   -0.5131 C   0  0  0  0  0  0  0  0  0  0  0  0
    4.1116    0.3323   -2.9955 C   0  0  0  0  0  0  0  0  0  0  0  0
    3.8210   -0.5871   -4.0167 C   0  0  0  0  0  0  0  0  0  0  0  0
    2.7034   -1.4376   -3.9095 C   0  0  0  0  0  0  0  0  0  0  0  0
    1.8716   -1.3735   -2.7800 C   0  0  0  0  0  0  0  0  0  0  0  0
   -3.2133    1.2297    1.4608 S   0  0  0  0  0  0  0  0  0  0  0  0
   -3.0781   -0.2930    0.5220 C   0  0  0  0  0  0  0  0  0  0  0  0
   -2.7698    0.0422    4.2205 O   0  0  0  0  0  0  0  0  0  0  0  0
   -3.5450   -1.4960    1.0601 C   0  0  0  0  0  0  0  0  0  0  0  0
   -3.4067   -2.6994    0.3464 C   0  0  0  0  0  0  0  0  0  0  0  0
   -2.7700   -2.6880   -0.9191 C   0  0  0  0  0  0  0  0  0  0  0  0
   -2.3249   -1.4675   -1.4557 C   0  0  0  0  0  0  0  0  0  0  0  0
   -2.4823   -0.2796   -0.7411 C   0  0  0  0  0  0  0  0  0  0  0  0
   -2.5862   -3.9528   -1.7157 C   0  0  0  0  0  0  0  0  0  0  0  0
   -3.9031   -3.9813    0.9620 C   0  0  0  0  0  0  0  0  0  0  0  0
    1.7871    0.2653    3.9756 H   0  0  0  0  0  0  0  0  0  0  0  0
   -0.2998   -0.2856    5.1594 H   0  0  0  0  0  0  0  0  0  0  0  0
   -0.5009    1.7642    0.6469 H   0  0  0  0  0  0  0  0  0  0  0  0
    4.3317    1.0494   -0.1506 H   0  0  0  0  0  0  0  0  0  0  0  0
    3.3053    2.3248   -0.9787 H   0  0  0  0  0  0  0  0  0  0  0  0
    0.4204    0.1316   -0.7394 H   0  0  0  0  0  0  0  0  0  0  0  0
    1.4470   -1.1202    0.1210 H   0  0  0  0  0  0  0  0  0  0  0  0
    4.9691    0.9883   -3.0702 H   0  0  0  0  0  0  0  0  0  0  0  0
    4.4587   -0.6423   -4.8892 H   0  0  0  0  0  0  0  0  0  0  0  0
    2.4842   -2.1433   -4.7000 H   0  0  0  0  0  0  0  0  0  0  0  0
    1.0096   -2.0223   -2.6902 H   0  0  0  0  0  0  0  0  0  0  0  0
   -2.7592   -0.3786    5.1423 H   0  0  0  0  0  0  0  0  0  0  0  0
   -4.0061   -1.4923    2.0403 H   0  0  0  0  0  0  0  0  0  0  0  0
   -1.8490   -1.4336   -2.4278 H   0  0  0  0  0  0  0  0  0  0  0  0
   -2.1260    0.6507   -1.1652 H   0  0  0  0  0  0  0  0  0  0  0  0
   -2.1069   -4.7337   -1.0887 H   0  0  0  0  0  0  0  0  0  0  0  0
   -1.9363   -3.7867   -2.6015 H   0  0  0  0  0  0  0  0  0  0  0  0
   -3.5733   -4.3177   -2.0690 H   0  0  0  0  0  0  0  0  0  0  0  0
   -4.5118   -3.7886    1.8714 H   0  0  0  0  0  0  0  0  0  0  0  0
   -4.5425   -4.5307    0.2398 H   0  0  0  0  0  0  0  0  0  0  0  0
   -3.0394   -4.6174    1.2476 H   0  0  0  0  0  0  0  0  0  0  0  0
  1  2  2  0
  2  3  1  0
  3  4  2  0
  4  5  1  0
  1  6  1  0
  5  6  2  0
  1  7  1  0
  7  8  1  0
  7  9  2  0
  8 10  1  0
 10 11  1  0
 11 12  2  0
  8 13  1  0
 12 13  1  0
 11 14  1  0
 14 15  2  0
 15 16  1  0
 16 17  2  0
 12 17  1  0
  5 18  1  0
 18 19  1  0
  4 20  1  0
 19 21  2  0
 21 22  1  0
 22 23  2  0
 23 24  1  0
 24 25  2  0
 19 25  1  0
 23 26  1  0
 22 27  1  0
  2 28  1  0
  3 29  1  0
  6 30  1  0
 10 31  1  0
 10 32  1  0
 13 33  1  0
 13 34  1  0
 14 35  1  0
 15 36  1  0
 16 37  1  0
 17 38  1  0
 20 39  1  0
 21 40  1  0
 24 41  1  0
 25 42  1  0
 26 43  1  0
 26 44  1  0
 26 45  1  0
 27 46  1  0
 27 47  1  0
 27 48  1  0
M  END
