
     RDKit          3D

 35 37  0  0  0  0  0  0  0  0999 V2000
  -26.6780    0.1517   -8.9035 C   0  0  0  0  0  0  0  0  0  0  0  0
  -27.7406    0.0989   -9.9689 C   0  0  0  0  0  0  0  0  0  0  0  0
  -25.9647   -2.0459  -14.0889 C   0  0  0  0  0  0  0  0  0  0  0  0
  -26.3021   -1.8663  -15.4360 C   0  0  0  0  0  0  0  0  0  0  0  0
  -27.1706   -0.8375  -15.8471 C   0  0  0  0  0  0  0  0  0  0  0  0
  -27.7360    0.0208  -14.9032 C   0  0  0  0  0  0  0  0  0  0  0  0
  -27.4133   -0.1677  -13.5675 C   0  0  0  0  0  0  0  0  0  0  0  0
  -27.8614    0.6282  -12.3675 C   0  0  2  0  0  0  0  0  0  0  0  0
  -27.2393    2.0498  -12.3772 C   0  0  0  0  0  0  0  0  0  0  0  0
  -27.8272    4.1852  -13.5617 C   0  0  0  0  0  0  0  0  0  0  0  0
  -27.1170    6.5908  -14.9144 C   0  0  0  0  0  0  0  0  0  0  0  0
  -26.5507    6.2525  -13.6711 C   0  0  0  0  0  0  0  0  0  0  0  0
  -26.8933    5.0664  -13.0104 C   0  0  0  0  0  0  0  0  0  0  0  0
  -26.7093    7.9053  -15.6025 C   0  0  2  0  0  0  0  0  0  0  0  0
  -26.3508    7.6847  -17.0816 C   0  0  0  0  0  0  0  0  0  0  0  0
  -24.1234   -2.0655  -17.1598 C   0  0  0  0  0  0  0  0  0  0  0  0
  -28.9310    0.2524   -9.6981 O   0  0  0  0  0  0  0  0  0  0  0  0
  -27.3208   -0.1526  -11.2491 N   0  0  0  0  0  0  0  0  0  0  0  0
  -26.3522   -1.1565  -11.6805 C   0  0  0  0  0  0  0  0  0  0  0  0
  -26.5387   -1.1906  -13.1649 C   0  0  0  0  0  0  0  0  0  0  0  0
  -26.0667    2.2426  -12.0568 O   0  0  0  0  0  0  0  0  0  0  0  0
  -28.1300    3.0200  -12.8282 N   0  0  0  0  0  0  0  0  0  0  0  0
  -28.4049    4.5140  -14.7852 C   0  0  0  0  0  0  0  0  0  0  0  0
  -28.0525    5.6953  -15.4559 C   0  0  0  0  0  0  0  0  0  0  0  0
  -25.5571    8.3869  -14.8384 O   0  0  0  0  0  0  0  0  0  0  0  0
  -25.5016    6.6358  -17.2459 F   0  0  0  0  0  0  0  0  0  0  0  0
  -27.4414    7.4207  -17.8419 F   0  0  0  0  0  0  0  0  0  0  0  0
  -25.7326    8.7548  -17.6335 F   0  0  0  0  0  0  0  0  0  0  0  0
  -27.7905    8.9931  -15.6496 C   0  0  0  0  0  0  0  0  0  0  0  0
  -28.2194    9.3740  -14.4277 F   0  0  0  0  0  0  0  0  0  0  0  0
  -27.3059   10.1048  -16.2681 F   0  0  0  0  0  0  0  0  0  0  0  0
  -28.8769    8.6208  -16.3636 F   0  0  0  0  0  0  0  0  0  0  0  0
  -25.5824   -2.9405  -16.6576 S   0  0  2  0  0  6  0  0  0  0  0  0
  -26.4933   -2.9896  -17.7833 O   0  0  0  0  0  0  0  0  0  0  0  0
  -25.1634   -4.1548  -15.9826 O   0  0  0  0  0  0  0  0  0  0  0  0
  1  2  1  0
  3  4  4  0
  4  5  4  0
  5  6  4  0
  6  7  4  0
  7  8  1  0
  8  9  1  6
 11 12  4  0
 12 13  4  0
 10 13  4  0
 11 14  1  0
 14 15  1  0
  2 17  2  0
  8 18  1  0
  2 18  1  0
 18 19  1  0
  3 20  4  0
  7 20  4  0
 19 20  1  0
  9 21  2  0
 10 22  1  0
  9 22  1  0
 10 23  4  0
 11 24  4  0
 23 24  4  0
 14 25  1  1
 15 26  1  0
 15 27  1  0
 15 28  1  0
 14 29  1  0
 29 30  1  0
 29 31  1  0
 29 32  1  0
 33 16  1  6
  4 33  1  0
 33 34  2  0
 33 35  2  0
M  END
