6XHT_V2V_E_301
     RDKit          3D

 34 35  0  0  0  0  0  0  0  0999 V2000
    1.2966  -26.6056   88.7357 C   0  0  0  0  0  0  0  0  0  0  0  0
    0.7998  -25.7435   89.6941 C   0  0  0  0  0  0  0  0  0  0  0  0
    2.2701  -24.1207   89.0252 C   0  0  0  0  0  0  0  0  0  0  0  0
    2.3163  -26.1900   87.9033 C   0  0  0  0  0  0  0  0  0  0  0  0
    0.7053  -23.6744   90.8659 C   0  0  2  0  0  0  0  0  0  0  0  0
   -0.5675  -22.9796   90.5273 C   0  0  1  0  0  0  0  0  0  0  0  0
   -0.7679  -22.2904   91.8919 C   0  0  1  0  0  0  0  0  0  0  0  0
   -0.4311  -23.4784   92.7729 C   0  0  1  0  0  0  0  0  0  0  0  0
   -1.7526  -24.1796   93.1012 C   0  0  0  0  0  0  0  0  0  0  0  0
   -0.3669  -30.6118   94.3975 C   0  0  0  0  0  0  0  0  0  0  0  0
   -1.3004  -31.7903   94.5393 C   0  0  2  0  0  0  0  0  0  0  0  0
   -0.4853  -33.0176   94.7921 C   0  0  2  0  0  0  0  0  0  0  0  0
   -1.2718  -34.2286   95.1842 C   0  0  2  0  0  0  0  0  0  0  0  0
   -0.3960  -35.4621   95.3119 C   0  0  0  0  0  0  0  0  0  0  0  0
    1.2676  -24.4885   89.8647 N   0  0  0  0  0  0  0  0  0  0  0  0
    2.7703  -24.9363   88.0875 N   0  0  0  0  0  0  0  0  0  0  0  0
    2.8365  -27.0697   86.9118 N   0  0  0  0  0  0  0  0  0  0  0  0
    2.7442  -22.9822   89.1289 O   0  0  0  0  0  0  0  0  0  0  0  0
    0.3213  -24.3669   92.0203 O   0  0  0  0  0  0  0  0  0  0  0  0
   -1.9495  -25.2564   92.2065 O   0  0  0  0  0  0  0  0  0  0  0  0
   -1.9644  -27.8991   92.1765 O   0  0  0  0  0  0  0  0  0  0  0  0
   -3.5455  -26.7773   93.8994 O   0  0  0  0  0  0  0  0  0  0  0  0
   -0.7967  -26.7012   94.1911 O   0  0  0  0  0  0  0  0  0  0  0  0
    0.8343  -28.2141   92.8877 O   0  0  0  0  0  0  0  0  0  0  0  0
    1.0557  -28.3448   95.4915 O   0  0  0  0  0  0  0  0  0  0  0  0
   -1.0992  -29.4191   94.2379 O   0  0  0  0  0  0  0  0  0  0  0  0
   -1.1647  -36.5660   95.6714 O   0  0  0  0  0  0  0  0  0  0  0  0
   -2.2289  -34.4789   94.1763 O   0  0  0  0  0  0  0  0  0  0  0  0
    0.5432  -32.8263   95.7104 O   0  0  0  0  0  0  0  0  0  0  0  0
   -2.1589  -31.9088   93.4733 O   0  0  0  0  0  0  0  0  0  0  0  0
    0.1777  -21.2866   92.0088 O   0  0  0  0  0  0  0  0  0  0  0  0
   -0.4860  -22.0673   89.5098 O   0  0  0  0  0  0  0  0  0  0  0  0
   -2.0654  -26.6878   93.0723 P   0  0  2  0  0  0  0  0  0  0  0  0
    0.0274  -28.1601   94.1677 P   0  0  1  0  0  0  0  0  0  0  0  0
  1  2  2  0
  1  4  1  0
  5  6  1  0
  6  7  1  0
  7  8  1  0
  8  9  1  6
 10 11  1  0
 11 12  1  0
 12 13  1  0
 13 14  1  0
  2 15  1  0
  3 15  1  0
  5 15  1  6
  3 16  1  0
  4 16  2  0
  4 17  1  0
  3 18  2  0
  5 19  1  0
  8 19  1  0
  9 20  1  0
 10 26  1  0
 14 27  1  0
 13 28  1  6
 12 29  1  1
 11 30  1  6
  7 31  1  1
  6 32  1  6
 20 33  1  0
 21 33  2  0
 33 22  1  1
 23 33  1  0
 23 34  1  0
 24 34  2  0
 34 25  1  1
 26 34  1  0
M  END
$$$$
