
     RDKit          3D

 24 27  0  0  0  0  0  0  0  0999 V2000
   17.2695  -26.6192  -24.1051 O   0  0  0  0  0  0  0  0  0  0  0  0
   16.7023  -25.4777  -24.5773 C   0  0  0  0  0  0  0  0  0  0  0  0
   17.2245  -24.3730  -24.0153 N   0  0  0  0  0  0  0  0  0  0  0  0
   16.7075  -23.2025  -24.4406 C   0  0  0  0  0  0  0  0  0  0  0  0
   15.7029  -23.0977  -25.3920 C   0  0  0  0  0  0  0  0  0  0  0  0
   15.1793  -24.2685  -25.9571 C   0  0  0  0  0  0  0  0  0  0  0  0
   15.6907  -25.5112  -25.5426 C   0  0  0  0  0  0  0  0  0  0  0  0
   15.1713  -26.6926  -26.1056 C   0  0  0  0  0  0  0  0  0  0  0  0
   14.1590  -26.6382  -27.0673 C   0  0  0  0  0  0  0  0  0  0  0  0
   14.1595  -24.2329  -26.9267 C   0  0  0  0  0  0  0  0  0  0  0  0
   13.6356  -25.4091  -27.4938 C   0  0  0  0  0  0  0  0  0  0  0  0
   12.5687  -25.3498  -28.5070 C   0  0  0  0  0  0  0  0  0  0  0  0
   11.7926  -26.4810  -28.8067 C   0  0  0  0  0  0  0  0  0  0  0  0
   10.7876  -26.4283  -29.7743 C   0  0  0  0  0  0  0  0  0  0  0  0
   10.5389  -25.2401  -30.4578 C   0  0  0  0  0  0  0  0  0  0  0  0
   12.3003  -24.1591  -29.2057 C   0  0  0  0  0  0  0  0  0  0  0  0
   11.2903  -24.0914  -30.1797 C   0  0  0  0  0  0  0  0  0  0  0  0
   11.0191  -22.8002  -30.9213 C   0  0  0  0  0  0  0  0  0  0  0  0
   10.0468  -21.9458  -30.2353 N   0  0  0  0  0  0  0  0  0  0  0  0
    9.4489  -20.9565  -31.1397 C   0  0  0  0  0  0  0  0  0  0  0  0
    8.0903  -20.6102  -30.5294 C   0  0  0  0  0  0  0  0  0  0  0  0
    8.9106  -22.6927  -29.6806 C   0  0  0  0  0  0  0  0  0  0  0  0
    7.9400  -21.5589  -29.3426 C   0  0  0  0  0  0  0  0  0  0  0  0
    6.5585  -21.9823  -29.1313 N   0  0  0  0  0  0  0  0  0  0  0  0
  1  2  1  0
  2  3  4  0
  3  4  4  0
  4  5  4  0
  5  6  4  0
  6  7  4  0
  2  7  4  0
  7  8  4  0
  8  9  4  0
  6 10  4  0
  9 11  4  0
 10 11  4  0
 11 12  1  0
 12 13  4  0
 13 14  4  0
 14 15  4  0
 12 16  4  0
 15 17  4  0
 16 17  4  0
 17 18  1  0
 18 19  1  0
 19 20  1  0
 20 21  1  0
 19 22  1  0
 22 23  1  0
 21 23  1  0
 23 24  1  0
M  END
