7L6D_BMF_A_501
     RDKit          3D

 48 50  0  0  0  0  0  0  0  0999 V2000
    7.3785    8.8132   21.1602 C   0  0  0  0  0  0  0  0  0  0  0  0
    5.6910    7.3875   21.9685 N   0  0  0  0  0  0  0  0  0  0  0  0
    6.1857    8.1456   24.5718 C   0  0  0  0  0  0  0  0  0  0  0  0
    6.5747    9.7714   26.5202 C   0  0  0  0  0  0  0  0  0  0  0  0
    6.6971   10.9482   29.9637 C   0  0  0  0  0  0  0  0  0  0  0  0
    6.9080    8.7027   23.5167 C   0  0  0  0  0  0  0  0  0  0  0  0
    3.4515    5.2576   21.7634 C   0  0  0  0  0  0  0  0  0  0  0  0
    8.5215   10.5711   19.9778 C   0  0  0  0  0  0  0  0  0  0  0  0
   10.0449   10.0546   18.0279 C   0  0  0  0  0  0  0  0  0  0  0  0
    9.0944    9.6294   19.1440 C   0  0  0  0  0  0  0  0  0  0  0  0
    8.8347    8.2850   19.3244 C   0  0  0  0  0  0  0  0  0  0  0  0
    9.4767    7.3586   18.4092 N   0  0  0  0  0  0  0  0  0  0  0  0
   10.7384    6.3124   18.8561 S   0  0  2  0  0  6  0  0  0  0  0  0
   11.6383    5.8795   17.3465 C   0  0  0  0  0  0  0  0  0  0  0  0
   10.2226    5.1034   19.4746 O   0  0  0  0  0  0  0  0  0  0  0  0
   11.6193    6.9523   19.8311 O   0  0  0  0  0  0  0  0  0  0  0  0
    7.9740    7.8652   20.3318 C   0  0  0  0  0  0  0  0  0  0  0  0
    6.6015    8.3163   22.1959 C   0  0  0  0  0  0  0  0  0  0  0  0
    4.9817    6.8307   23.0345 N   0  0  0  0  0  0  0  0  0  0  0  0
    5.2041    7.1829   24.2704 C   0  0  0  0  0  0  0  0  0  0  0  0
    6.3357    8.4599   25.9787 N   0  0  0  0  0  0  0  0  0  0  0  0
    6.2521    9.9696   27.8564 O   0  0  0  0  0  0  0  0  0  0  0  0
    7.2677   10.6120   28.5915 C   0  0  0  0  0  0  0  0  0  0  0  0
    7.0301   10.6449   25.8695 O   0  0  0  0  0  0  0  0  0  0  0  0
    4.3860    6.4808   25.0956 N   0  0  0  0  0  0  0  0  0  0  0  0
    3.6219    5.6809   24.2812 N   0  0  0  0  0  0  0  0  0  0  0  0
    4.0014    5.9012   23.0311 C   0  0  0  0  0  0  0  0  0  0  0  0
    7.6689   10.1590   20.9944 C   0  0  0  0  0  0  0  0  0  0  0  0
    7.4452   11.4391   30.5505 H   0  0  0  0  0  0  0  0  0  0  0  0
    6.3935   10.0470   30.4543 H   0  0  0  0  0  0  0  0  0  0  0  0
    5.8521   11.5945   29.8500 H   0  0  0  0  0  0  0  0  0  0  0  0
    7.6569    9.3886   23.7004 H   0  0  0  0  0  0  0  0  0  0  0  0
    3.9689    5.6477   20.9120 H   0  0  0  0  0  0  0  0  0  0  0  0
    2.4075    5.4752   21.6769 H   0  0  0  0  0  0  0  0  0  0  0  0
    3.5921    4.1979   21.8116 H   0  0  0  0  0  0  0  0  0  0  0  0
    8.7257   11.5741   19.8461 H   0  0  0  0  0  0  0  0  0  0  0  0
   10.1365   11.1207   18.0242 H   0  0  0  0  0  0  0  0  0  0  0  0
    9.6582    9.7267   17.0857 H   0  0  0  0  0  0  0  0  0  0  0  0
   11.0065    9.6145   18.1913 H   0  0  0  0  0  0  0  0  0  0  0  0
    9.1629    7.3354   17.4763 H   0  0  0  0  0  0  0  0  0  0  0  0
   10.9690    5.4141   16.6534 H   0  0  0  0  0  0  0  0  0  0  0  0
   12.4315    5.2025   17.5858 H   0  0  0  0  0  0  0  0  0  0  0  0
   12.0462    6.7662   16.9078 H   0  0  0  0  0  0  0  0  0  0  0  0
    7.7780    6.8608   20.4646 H   0  0  0  0  0  0  0  0  0  0  0  0
    6.2686    7.7136   26.6172 H   0  0  0  0  0  0  0  0  0  0  0  0
    8.1105    9.9611   28.6958 H   0  0  0  0  0  0  0  0  0  0  0  0
    7.5915   11.5001   28.0902 H   0  0  0  0  0  0  0  0  0  0  0  0
    7.2500   10.8571   21.6286 H   0  0  0  0  0  0  0  0  0  0  0  0
  3  6  4  0
  9 10  1  0
  8 10  4  0
 10 11  4  0
 11 12  1  0
 13 12  1  6
 13 14  1  0
 13 15  2  0
 13 16  2  0
 11 17  4  0
  1 17  4  0
  1 18  1  0
  6 18  4  0
  2 18  4  0
  2 19  4  0
  3 20  4  0
 19 20  4  0
  4 21  1  0
  3 21  1  0
  4 22  1  0
  5 23  1  0
 22 23  1  0
  4 24  2  0
 20 25  4  0
 25 26  4  0
 19 27  4  0
  7 27  1  0
 26 27  4  0
  8 28  4  0
  1 28  4  0
  5 29  1  0
  5 30  1  0
  5 31  1  0
  6 32  1  0
  7 33  1  0
  7 34  1  0
  7 35  1  0
  8 36  1  0
  9 37  1  0
  9 38  1  0
  9 39  1  0
 12 40  1  0
 14 41  1  0
 14 42  1  0
 14 43  1  0
 17 44  1  0
 21 45  1  0
 23 46  1  0
 23 47  1  0
 28 48  1  0
M  END
