
     RDKit          3D

 22 23  0  0  0  0  0  0  0  0999 V2000
   72.2966   46.3677   50.2226 N   0  0  0  0  0  0  0  0  0  0  0  0
   71.0695   46.9653   50.3600 C   0  0  0  0  0  0  0  0  0  0  0  0
   71.0714   48.2059   49.9139 N   0  0  0  0  0  0  0  0  0  0  0  0
   72.3577   48.4081   49.4799 C   0  0  0  0  0  0  0  0  0  0  0  0
   72.9844   49.5733   48.8954 C   0  0  0  0  0  0  0  0  0  0  0  0
   72.4429   50.6545   48.6863 O   0  0  0  0  0  0  0  0  0  0  0  0
   74.3178   49.3477   48.5796 N   0  0  0  0  0  0  0  0  0  0  0  0
   74.9905   48.1657   48.8163 C   0  0  0  0  0  0  0  0  0  0  0  0
   76.2975   48.1383   48.4520 N   0  0  0  0  0  0  0  0  0  0  0  0
   74.4410   47.1076   49.3488 N   0  0  0  0  0  0  0  0  0  0  0  0
   73.1341   47.2850   49.6580 C   0  0  0  0  0  0  0  0  0  0  0  0
   72.6362   45.0186   50.6217 C   0  0  0  0  0  0  0  0  0  0  0  0
   73.3330   44.9806   51.9808 C   0  0  0  0  0  0  0  0  0  0  0  0
   74.3342   43.8277   52.0593 C   0  0  0  0  0  0  0  0  0  0  0  0
   73.6366   42.5055   52.3840 C   0  0  0  0  0  0  0  0  0  0  0  0
   74.4312   41.3197   51.8906 C   0  0  2  0  0  0  0  0  0  0  0  0
   74.4267   40.3157   52.7999 F   0  0  0  0  0  0  0  0  0  0  0  0
   75.7214   41.6586   51.6555 F   0  0  0  0  0  0  0  0  0  0  0  0
   73.9219   40.5262   50.3836 P   0  0  1  0  0  5  0  0  0  0  0  0
   72.3319   40.2733   50.4766 O   0  0  0  0  0  0  0  0  0  0  0  0
   74.2628   41.1203   49.0525 O   0  0  0  0  0  0  0  0  0  0  0  0
   74.4256   38.9954   50.4430 O   0  0  0  0  0  0  0  0  0  0  0  0
  1  2  4  0
  2  3  4  0
  3  4  4  0
  4  5  4  0
  5  6  2  0
  5  7  4  0
  7  8  4  0
  8  9  1  0
  8 10  4  0
  1 11  4  0
  4 11  4  0
 10 11  4  0
  1 12  1  0
 12 13  1  0
 13 14  1  0
 14 15  1  0
 15 16  1  0
 16 17  1  1
 16 18  1  0
 16 19  1  0
 19 20  1  1
 19 21  2  0
 19 22  1  0
M  END
