7T0D_FPP_B_646
     RDKit          3D

 24 23  0  0  0  0  0  0  0  0999 V2000
   35.3013  -33.5889    0.3378 C   0  0  0  0  0  0  0  0  0  0  0  0
   34.9564  -32.2339    0.3180 O   0  0  0  0  0  0  0  0  0  0  0  0
   34.5797  -34.3160   -0.7951 C   0  0  0  0  0  0  0  0  0  0  0  0
   34.8145  -33.9473   -2.0347 C   0  0  0  0  0  0  0  0  0  0  0  0
   35.7797  -32.8043   -2.2687 C   0  0  0  0  0  0  0  0  0  0  0  0
   34.1708  -34.5931   -3.2634 C   0  0  0  0  0  0  0  0  0  0  0  0
   33.0570  -35.5768   -2.9322 C   0  0  0  0  0  0  0  0  0  0  0  0
   32.6639  -36.3029   -4.2237 C   0  0  0  0  0  0  0  0  0  0  0  0
   31.6973  -37.2024   -4.2360 C   0  0  0  0  0  0  0  0  0  0  0  0
   30.9515  -37.5588   -2.9513 C   0  0  0  0  0  0  0  0  0  0  0  0
   31.3292  -37.9413   -5.5284 C   0  0  0  0  0  0  0  0  0  0  0  0
   30.2829  -39.0407   -5.3529 C   0  0  0  0  0  0  0  0  0  0  0  0
   29.1326  -38.7181   -6.3095 C   0  0  0  0  0  0  0  0  0  0  0  0
   28.0611  -38.0581   -5.9292 C   0  0  0  0  0  0  0  0  0  0  0  0
   27.9181  -37.5576   -4.4930 C   0  0  0  0  0  0  0  0  0  0  0  0
   26.9509  -37.7890   -6.9445 C   0  0  0  0  0  0  0  0  0  0  0  0
   34.4363  -31.5382    1.7184 P   0  0  2  0  0  0  0  0  0  0  0  0
   32.9375  -31.6391    1.8412 O   0  0  0  0  0  0  0  0  0  0  0  0
   34.8980  -30.0992    1.7598 O   0  0  0  0  0  0  0  0  0  0  0  0
   35.0762  -32.3669    2.9870 O   0  0  0  0  0  0  0  0  0  0  0  0
   36.3690  -31.9001    3.8845 P   0  0  2  0  0  0  0  0  0  0  0  0
   36.3145  -30.4086    4.1070 O   0  0  0  0  0  0  0  0  0  0  0  0
   37.6584  -32.2867    3.2000 O   0  0  0  0  0  0  0  0  0  0  0  0
   36.2530  -32.6210    5.2147 O   0  0  0  0  0  0  0  0  0  0  0  0
  1  2  1  0
  1  3  1  0
  3  4  2  0
  4  5  1  0
  4  6  1  0
  6  7  1  0
  7  8  1  0
  8  9  2  0
  9 10  1  0
  9 11  1  0
 11 12  1  0
 12 13  1  0
 13 14  2  0
 14 15  1  0
 14 16  1  0
  2 17  1  0
 17 18  2  0
 17 19  1  6
 17 20  1  0
 20 21  1  0
 21 22  2  0
 21 23  1  6
 21 24  1  0
M  END
