7WUY_76N_A_529
     RDKit          3D

 30 34  0  0  0  0  0  0  0  0999 V2000
   -9.5934  127.0680   29.2805 C   0  0  2  0  0  0  0  0  0  0  0  0
   -9.6404  126.6878   30.6098 C   0  0  1  0  0  0  0  0  0  0  0  0
   -9.4094  127.6828   31.7051 C   0  0  1  0  0  0  0  0  0  0  0  0
   -9.8202  129.0801   31.4000 C   0  0  0  0  0  0  0  0  0  0  0  0
   -9.9957  129.4042   29.9515 C   0  0  0  0  0  0  0  0  0  0  0  0
   -9.2301  128.5099   29.0361 C   0  0  2  0  0  0  0  0  0  0  0  0
   -9.9587  125.9378   33.3921 C   0  0  0  0  0  0  0  0  0  0  0  0
  -10.6440  125.4637   34.5174 C   0  0  0  0  0  0  0  0  0  0  0  0
  -11.5244  126.3457   35.0914 C   0  0  0  0  0  0  0  0  0  0  0  0
  -11.0882  128.0606   33.5509 C   0  0  0  0  0  0  0  0  0  0  0  0
  -10.1874  127.2358   32.9171 C   0  0  0  0  0  0  0  0  0  0  0  0
  -10.3985  124.1074   34.9424 C   0  0  0  0  0  0  0  0  0  0  0  0
  -11.8713  122.7207   39.0336 C   0  0  0  0  0  0  0  0  0  0  0  0
  -10.5166  122.7858   39.7595 C   0  0  0  0  0  0  0  0  0  0  0  0
   -9.7037  123.7603   38.9364 C   0  0  0  0  0  0  0  0  0  0  0  0
   -9.4776  123.2619   37.5476 C   0  0  0  0  0  0  0  0  0  0  0  0
  -10.5713  122.5457   36.8957 C   0  0  1  0  0  0  0  0  0  0  0  0
  -11.5941  121.9236   37.7920 C   0  0  2  0  0  0  0  0  0  0  0  0
  -11.2516  123.2521   35.7565 C   0  0  2  0  0  0  0  0  0  0  0  0
  -11.9088  122.1384   34.9168 C   0  0  1  0  0  0  0  0  0  0  0  0
  -12.8553  121.6181   37.1017 C   0  0  0  0  0  0  0  0  0  0  0  0
  -13.0591  121.6971   35.7933 C   0  0  0  0  0  0  0  0  0  0  0  0
  -12.3485  122.6262   33.5807 C   0  0  0  0  0  0  0  0  0  0  0  0
  -11.7390  127.5969   34.6268 N   0  0  0  0  0  0  0  0  0  0  0  0
  -12.1654  125.9912   36.0881 O   0  0  0  0  0  0  0  0  0  0  0  0
   -9.0382  125.1589   32.7075 O   0  0  0  0  0  0  0  0  0  0  0  0
   -9.2907  123.5932   34.5489 O   0  0  0  0  0  0  0  0  0  0  0  0
  -10.8679  126.8287   29.8518 O   0  0  0  0  0  0  0  0  0  0  0  0
   -9.5250  128.8937   27.7230 O   0  0  0  0  0  0  0  0  0  0  0  0
   -8.0348  127.5824   32.0222 O   0  0  0  0  0  0  0  0  0  0  0  0
  1  2  1  0
  2  3  1  0
  3  4  1  0
  4  5  1  0
  5  6  1  0
  1  6  1  0
  7  8  2  0
  8  9  1  0
 10 11  2  0
  7 11  1  0
  3 11  1  0
  8 12  1  0
 13 14  1  0
 14 15  1  0
 15 16  1  0
 17 16  1  1
 18 13  1  1
 17 18  1  0
 19 12  1  6
 17 19  1  0
 19 20  1  0
 18 21  1  0
 20 22  1  0
 21 22  2  0
 20 23  1  6
  9 24  1  0
 10 24  1  0
  9 25  2  0
  7 26  1  0
 12 27  2  0
  2 28  1  1
  1 28  1  1
  6 29  1  6
  3 30  1  1
M  END
$$$$
