7BJJ_TVW_A_301
     RDKit          3D

 15 16  0  0  0  0  0  0  0  0999 V2000
   11.4823   -5.3041   -0.4619 C   0  0  0  0  0  0  0  0  0  0  0  0
   10.7555   -6.4071    0.0837 N   0  0  0  0  0  0  0  0  0  0  0  0
   13.4399   -4.4424   -1.5241 C   0  0  0  0  0  0  0  0  0  0  0  0
   12.7252   -5.4888   -0.9948 N   0  0  0  0  0  0  0  0  0  0  0  0
   11.6899   -2.9903   -1.0038 C   0  0  0  0  0  0  0  0  0  0  0  0
   12.9215   -3.1764   -1.5313 N   0  0  0  0  0  0  0  0  0  0  0  0
   10.9657   -4.0127   -0.4750 C   0  0  0  0  0  0  0  0  0  0  0  0
    9.8637   -2.1177   -0.3369 N   0  0  0  0  0  4  0  0  0  0  0  0
    9.7918   -3.4407   -0.0485 C   0  0  0  0  0  0  0  0  0  0  0  0
   11.0215   -1.8285   -0.9225 N   0  0  0  0  0  0  0  0  0  0  0  0
    9.8054   -6.2770    0.4932 H   0  0  0  0  0  0  0  0  0  0  0  0
   11.1718   -7.3649    0.0783 H   0  0  0  0  0  0  0  0  0  0  0  0
   14.4212   -4.6203   -1.9386 H   0  0  0  0  0  0  0  0  0  0  0  0
    9.1234   -1.4113   -0.1346 H   0  0  0  0  0  0  0  0  0  0  0  0
    8.9540   -3.9306    0.4295 H   0  0  0  0  0  0  0  0  0  0  0  0
  1  2  1  0
  1  4  4  0
  3  4  4  0
  5  6  4  0
  3  6  4  0
  1  7  4  0
  5  7  4  0
  8  9  4  0
  7  9  4  0
  8 10  4  0
  5 10  4  0
  2 11  1  0
  2 12  1  0
  3 13  1  0
  8 14  1  0
  9 15  1  0
M  CHG  1   8   1
M  END
