1UOU_CMU_A_1481
     RDKit          3D

 27 28  0  0  0  0  0  0  0  0999 V2000
   -4.8878    4.7471   29.7415 Cl  0  0  0  0  0  0  0  0  0  0  0  0
   -3.7749    3.5369   30.2855 C   0  0  0  0  0  0  0  0  0  0  0  0
   -3.2849    2.6011   29.4349 C   0  0  0  0  0  0  0  0  0  0  0  0
   -3.6237    2.5645   27.9422 C   0  0  0  0  0  0  0  0  0  0  0  0
   -4.9960    3.1414   27.8085 N   0  0  0  0  0  0  0  0  0  0  0  0
   -5.8568    3.5263   28.9482 C   0  0  0  0  0  0  0  0  0  0  0  0
   -7.2479    3.8291   28.3413 C   0  0  0  0  0  0  0  0  0  0  0  0
   -7.0410    4.0005   26.8053 C   0  0  0  0  0  0  0  0  0  0  0  0
   -5.6417    3.4140   26.6235 C   0  0  0  0  0  0  0  0  0  0  0  0
   -5.1140    3.1530   25.4648 N   0  0  0  0  0  0  0  0  0  0  0  0
   -2.4123    1.6793   29.9556 N   0  0  0  0  0  4  0  0  0  0  0  0
   -2.0262    1.6712   31.2504 C   0  0  0  0  0  0  0  0  0  0  0  0
   -1.2337    0.8175   31.6292 O   0  0  0  0  0  0  0  0  0  0  0  0
   -2.5027    2.6004   32.1016 N   0  0  0  0  0  4  0  0  0  0  0  0
   -3.3741    3.5141   31.6519 C   0  0  0  0  0  0  0  0  0  0  0  0
   -3.8246    4.3287   32.4230 O   0  0  0  0  0  0  0  0  0  0  0  0
   -2.9201    3.1502   27.3883 H   0  0  0  0  0  0  0  0  0  0  0  0
   -3.5826    1.5665   27.5587 H   0  0  0  0  0  0  0  0  0  0  0  0
   -5.9240    2.7234   29.6523 H   0  0  0  0  0  0  0  0  0  0  0  0
   -5.4626    4.3721   29.4719 H   0  0  0  0  0  0  0  0  0  0  0  0
   -7.9187    3.0182   28.5346 H   0  0  0  0  0  0  0  0  0  0  0  0
   -7.6713    4.7120   28.7728 H   0  0  0  0  0  0  0  0  0  0  0  0
   -7.7711    3.4514   26.2481 H   0  0  0  0  0  0  0  0  0  0  0  0
   -7.1419    5.0081   26.4596 H   0  0  0  0  0  0  0  0  0  0  0  0
   -4.2066    2.7750   25.4111 H   0  0  0  0  0  0  0  0  0  0  0  0
   -2.0491    0.9886   29.3553 H   0  0  0  0  0  0  0  0  0  0  0  0
   -2.2142    2.6082   33.0429 H   0  0  0  0  0  0  0  0  0  0  0  0
  1  2  1  0
  2  3  4  0
  3  4  1  0
  4  5  1  0
  5  6  1  0
  6  7  1  0
  7  8  1  0
  5  9  1  0
  8  9  1  0
  9 10  2  3
  3 11  4  0
 11 12  4  0
 12 13  2  0
 12 14  4  0
  2 15  4  0
 14 15  4  0
 15 16  2  0
  4 17  1  0
  4 18  1  0
  6 19  1  0
  6 20  1  0
  7 21  1  0
  7 22  1  0
  8 23  1  0
  8 24  1  0
 10 25  1  0
 11 26  1  0
 14 27  1  0
M  CHG  2  11   1  14   1
M  END
