8EAB_VN2_B_302
     RDKit          3D

 70 74  0  0  0  0  0  0  0  0999 V2000
    2.5025    2.0654    1.9394 C   0  0  0  0  0  0  0  0  0  0  0  0
    1.8606    0.8679    1.6156 C   0  0  0  0  0  0  0  0  0  0  0  0
    2.5515   -0.1236    0.9007 C   0  0  0  0  0  0  0  0  0  0  0  0
    1.8859   -1.4233    0.6340 C   0  0  0  0  0  0  0  0  0  0  0  0
    1.5388   -2.2783    1.6937 C   0  0  0  0  0  0  0  0  0  0  0  0
    0.9447   -3.5179    1.4398 C   0  0  0  0  0  0  0  0  0  0  0  0
    0.6556   -3.9118    0.1216 C   0  0  0  0  0  0  0  0  0  0  0  0
    1.0064   -3.0571   -0.9372 C   0  0  0  0  0  0  0  0  0  0  0  0
    1.6051   -1.8198   -0.6835 C   0  0  0  0  0  0  0  0  0  0  0  0
    1.8130   -2.5879   -3.8691 C   0  0  0  0  0  0  0  0  0  0  0  0
    0.0705   -5.2730   -0.1629 C   0  0  1  0  0  0  0  0  0  0  0  0
    1.9661   -2.3138   -1.1611 C   0  0  0  0  0  0  0  0  0  0  0  0
    2.0110   -3.6529   -1.5810 C   0  0  0  0  0  0  0  0  0  0  0  0
    1.3177   -4.6368   -0.8735 C   0  0  0  0  0  0  0  0  0  0  0  0
    0.5813   -4.2982    0.2641 C   0  0  0  0  0  0  0  0  0  0  0  0
    0.5501   -2.9688    0.7203 C   0  0  0  0  0  0  0  0  0  0  0  0
    1.2244   -1.9776   -0.0147 C   0  0  0  0  0  0  0  0  0  0  0  0
   -0.2628   -2.5926    1.9330 C   0  0  2  0  0  0  0  0  0  0  0  0
    2.1870   -3.9449   -3.4186 C   0  0  0  0  0  0  0  0  0  0  0  0
    2.4640   -4.9350   -4.3740 C   0  0  0  0  0  0  0  0  0  0  0  0
    2.7610   -6.5669   -2.6763 C   0  0  0  0  0  0  0  0  0  0  0  0
    2.5080   -5.6174   -1.6857 C   0  0  0  0  0  0  0  0  0  0  0  0
    2.2308   -4.2902   -2.0465 C   0  0  0  0  0  0  0  0  0  0  0  0
    2.7249   -1.2506   -1.9247 C   0  0  1  0  0  0  0  0  0  0  0  0
    2.0624   -3.2753   -0.9798 C   0  0  0  0  0  0  0  0  0  0  0  0
    3.0739   -2.3374   -0.7241 C   0  0  0  0  0  0  0  0  0  0  0  0
    2.9166   -1.3879    0.2909 C   0  0  0  0  0  0  0  0  0  0  0  0
    1.7481   -1.3663    1.0727 C   0  0  0  0  0  0  0  0  0  0  0  0
    0.7181   -2.2762    0.7818 C   0  0  0  0  0  0  0  0  0  0  0  0
    0.8768   -3.2276   -0.2288 C   0  0  0  0  0  0  0  0  0  0  0  0
    1.5594   -0.3189    2.1412 C   0  0  1  0  0  0  0  0  0  0  0  0
    4.1954   -1.2678   -1.5738 C   0  0  0  0  0  0  0  0  0  0  0  0
    3.8846    0.1296    0.4971 C   0  0  0  0  0  0  0  0  0  0  0  0
    4.4910    1.3363    0.8709 C   0  0  0  0  0  0  0  0  0  0  0  0
   -1.0762   -5.4763    0.5865 F   0  0  0  0  0  0  0  0  0  0  0  0
   -0.2480   -5.3601   -1.5058 F   0  0  0  0  0  0  0  0  0  0  0  0
    0.9761   -6.2731    0.1523 F   0  0  0  0  0  0  0  0  0  0  0  0
   -0.5341   -3.7067    2.7100 F   0  0  0  0  0  0  0  0  0  0  0  0
   -1.4569   -2.0272    1.5242 F   0  0  0  0  0  0  0  0  0  0  0  0
    0.4263   -1.6792    2.7133 F   0  0  0  0  0  0  0  0  0  0  0  0
    0.8239    0.7481    1.6549 F   0  0  0  0  0  0  0  0  0  0  0  0
    0.8889   -0.8789    3.2132 F   0  0  0  0  0  0  0  0  0  0  0  0
    2.7828    0.1626    2.5767 F   0  0  0  0  0  0  0  0  0  0  0  0
    3.7934    2.2697    1.5700 N   0  0  0  0  0  0  0  0  0  0  0  0
    2.5073   -1.4376   -3.3647 N   0  0  0  0  0  0  0  0  0  0  0  0
    2.7387   -6.2083   -3.9859 N   0  0  0  0  0  0  0  0  0  0  0  0
    4.6337   -0.8147   -0.2816 N   0  0  0  0  0  0  0  0  0  0  0  0
    0.8577   -2.4442   -4.6813 O   0  0  0  0  0  0  0  0  0  0  0  0
    5.0489   -1.6124   -2.4394 O   0  0  0  0  0  0  0  0  0  0  0  0
    1.9768    2.8295    2.4966 H   0  0  0  0  0  0  0  0  0  0  0  0
    0.8409    0.7048    1.9429 H   0  0  0  0  0  0  0  0  0  0  0  0
    1.7377   -1.9898    2.7184 H   0  0  0  0  0  0  0  0  0  0  0  0
    0.7163   -4.1703    2.2742 H   0  0  0  0  0  0  0  0  0  0  0  0
    0.8254   -3.3503   -1.9636 H   0  0  0  0  0  0  0  0  0  0  0  0
    1.8724   -1.1824   -1.5179 H   0  0  0  0  0  0  0  0  0  0  0  0
    2.5771   -3.9362   -2.4595 H   0  0  0  0  0  0  0  0  0  0  0  0
    1.3505   -5.6654   -1.2085 H   0  0  0  0  0  0  0  0  0  0  0  0
    0.0440   -5.0771    0.7915 H   0  0  0  0  0  0  0  0  0  0  0  0
    1.1811   -0.9440    0.3061 H   0  0  0  0  0  0  0  0  0  0  0  0
    2.4379   -4.6999   -5.4306 H   0  0  0  0  0  0  0  0  0  0  0  0
    2.9837   -7.5902   -2.4029 H   0  0  0  0  0  0  0  0  0  0  0  0
    2.5513   -5.9099   -0.6436 H   0  0  0  0  0  0  0  0  0  0  0  0
    2.3565   -0.2389   -1.6436 H   0  0  0  0  0  0  0  0  0  0  0  0
    3.9895   -2.3479   -1.3032 H   0  0  0  0  0  0  0  0  0  0  0  0
    3.7097   -0.6715    0.4654 H   0  0  0  0  0  0  0  0  0  0  0  0
   -0.2110   -2.2501    1.3348 H   0  0  0  0  0  0  0  0  0  0  0  0
    0.0715   -3.9221   -0.4320 H   0  0  0  0  0  0  0  0  0  0  0  0
    5.5135    1.5428    0.5822 H   0  0  0  0  0  0  0  0  0  0  0  0
    3.0644   -0.8685   -4.0423 H   0  0  0  0  0  0  0  0  0  0  0  0
    5.5719   -1.1045    0.0717 H   0  0  0  0  0  0  0  0  0  0  0  0
  1  2  4  0
  2  3  4  0
  3  4  1  0
  4  5  4  0
  5  6  4  0
  6  7  4  0
  7  8  4  0
  8  9  4  0
  4  9  4  0
  7 11  1  0
 12 13  4  0
 13 14  4  0
 14 15  4  0
 15 16  4  0
 16 17  4  0
 12 17  4  0
 16 18  1  0
 10 19  1  0
 19 20  4  0
 21 22  4  0
 19 23  4  0
 22 23  4  0
 12 24  1  0
 23 25  1  0
 25 26  4  0
 26 27  4  0
 27 28  4  0
 28 29  4  0
 29 30  4  0
 25 30  4  0
 28 31  1  0
 24 32  1  0
  3 33  4  0
 33 34  4  0
 11 35  1  1
 11 36  1  0
 11 37  1  0
 18 38  1  1
 18 39  1  0
 18 40  1  0
 31 41  1  6
 31 42  1  0
 31 43  1  0
  1 44  4  0
 34 44  4  0
 24 45  1  0
 10 45  1  0
 20 46  4  0
 21 46  4  0
 33 47  1  0
 32 47  1  0
 10 48  2  0
 32 49  2  0
  1 50  1  0
  2 51  1  0
  5 52  1  0
  6 53  1  0
  8 54  1  0
  9 55  1  0
 13 56  1  0
 14 57  1  0
 15 58  1  0
 17 59  1  0
 20 60  1  0
 21 61  1  0
 22 62  1  0
 24 63  1  1
 26 64  1  0
 27 65  1  0
 29 66  1  0
 30 67  1  0
 34 68  1  0
 45 69  1  0
 47 70  1  0
M  END
