1KE5_LS1_A_299
     RDKit          3D

 23 25  0  0  0  0  0  0  0  0999 V2000
   -9.7028   52.5086   40.7083 N   0  0  0  0  0  0  0  0  0  0  0  0
  -10.1333   51.8535   39.5048 C   0  0  0  0  0  0  0  0  0  0  0  0
   -9.4763   50.5606   39.4934 C   0  0  0  0  0  0  0  0  0  0  0  0
   -7.8539   49.4762   41.1647 C   0  0  0  0  0  0  0  0  0  0  0  0
   -7.1560   49.5835   42.3459 C   0  0  0  0  0  0  0  0  0  0  0  0
   -7.2869   50.7433   43.0753 C   0  0  0  0  0  0  0  0  0  0  0  0
   -8.1023   51.7565   42.6130 C   0  0  0  0  0  0  0  0  0  0  0  0
   -8.8126   51.6697   41.4288 C   0  0  0  0  0  0  0  0  0  0  0  0
   -8.6762   50.5040   40.7032 C   0  0  0  0  0  0  0  0  0  0  0  0
  -10.9264   52.3265   38.6415 O   0  0  0  0  0  0  0  0  0  0  0  0
   -9.5691   49.6206   38.5888 C   0  0  0  0  0  0  0  0  0  0  0  0
  -10.4074   49.7296   37.4434 N   0  0  0  0  0  0  0  0  0  0  0  0
  -10.5040   48.5557   36.6233 C   0  0  0  0  0  0  0  0  0  0  0  0
   -9.4047   47.8760   36.1620 C   0  0  0  0  0  0  0  0  0  0  0  0
   -9.5533   46.7431   35.3690 C   0  0  0  0  0  0  0  0  0  0  0  0
  -10.8210   46.3126   35.0530 C   0  0  0  0  0  0  0  0  0  0  0  0
  -11.9189   47.0123   35.5283 C   0  0  0  0  0  0  0  0  0  0  0  0
  -11.7863   48.1401   36.3175 C   0  0  0  0  0  0  0  0  0  0  0  0
  -11.1442   44.9077   34.0678 S   0  0  2  0  0  0  0  0  0  0  0  0
  -11.6127   43.8117   35.0132 O   0  0  0  0  0  0  0  0  0  0  0  0
   -9.9077   44.3897   33.4075 O   0  0  0  0  0  0  0  0  0  0  0  0
  -12.3906   45.3110   32.9419 N   0  0  0  0  0  0  0  0  0  0  0  0
  -11.7935   45.2475   31.6230 C   0  0  0  0  0  0  0  0  0  0  0  0
  1  2  1  0
  2  3  1  0
  4  5  1  0
  5  6  2  0
  6  7  1  0
  1  8  1  0
  7  8  2  0
  3  9  1  0
  4  9  2  0
  8  9  1  0
  2 10  2  0
  3 11  2  0
 11 12  1  0
 12 13  1  0
 13 14  2  0
 14 15  1  0
 15 16  2  0
 16 17  1  0
 13 18  1  0
 17 18  2  0
 16 19  1  0
 19 20  2  0
 19 21  2  0
 19 22  1  6
 22 23  1  0
M  END
$$$$
