1KE5_LS1_A_299
     RDKit          3D

 23 25  0  0  0  0  0  0  0  0999 V2000
   -9.4600   52.7680   40.5283 N   0  0  0  0  0  0  0  0  0  0  0  0
   -9.9497   52.0137   39.4084 C   0  0  0  0  0  0  0  0  0  0  0  0
   -9.2779   50.7296   39.4635 C   0  0  0  0  0  0  0  0  0  0  0  0
   -7.5493   49.7980   41.1204 C   0  0  0  0  0  0  0  0  0  0  0  0
   -6.7868   50.0066   42.2468 C   0  0  0  0  0  0  0  0  0  0  0  0
   -6.8910   51.2207   42.8867 C   0  0  0  0  0  0  0  0  0  0  0  0
   -7.7442   52.1863   42.3919 C   0  0  0  0  0  0  0  0  0  0  0  0
   -8.5195   51.9977   41.2616 C   0  0  0  0  0  0  0  0  0  0  0  0
   -8.4097   50.7780   40.6256 C   0  0  0  0  0  0  0  0  0  0  0  0
  -10.7967   52.4085   38.5570 O   0  0  0  0  0  0  0  0  0  0  0  0
   -9.4099   49.7184   38.6444 C   0  0  0  0  0  0  0  0  0  0  0  0
  -10.3431   49.7105   37.5695 N   0  0  0  0  0  0  0  0  0  0  0  0
  -10.2839   48.5730   36.6962 C   0  0  0  0  0  0  0  0  0  0  0  0
   -9.2019   47.7309   36.6414 C   0  0  0  0  0  0  0  0  0  0  0  0
   -9.1946   46.6419   35.7762 C   0  0  0  0  0  0  0  0  0  0  0  0
  -10.2903   46.4206   34.9744 C   0  0  0  0  0  0  0  0  0  0  0  0
  -11.3735   47.2823   35.0441 C   0  0  0  0  0  0  0  0  0  0  0  0
  -11.3946   48.3687   35.8994 C   0  0  0  0  0  0  0  0  0  0  0  0
  -10.4072   45.0923   33.8473 S   0  0  2  0  0  0  0  0  0  0  0  0
   -9.1612   45.1497   32.9763 O   0  0  0  0  0  0  0  0  0  0  0  0
  -11.5711   45.2429   32.9221 O   0  0  0  0  0  0  0  0  0  0  0  0
  -10.4495   43.6194   34.7487 N   0  0  0  0  0  0  0  0  0  0  0  0
   -9.1540   42.9927   34.5789 C   0  0  0  0  0  0  0  0  0  0  0  0
  1  2  1  0
  2  3  1  0
  4  5  1  0
  5  6  2  0
  6  7  1  0
  1  8  1  0
  7  8  2  0
  3  9  1  0
  4  9  2  0
  8  9  1  0
  2 10  2  0
  3 11  2  0
 11 12  1  0
 12 13  1  0
 13 14  2  0
 14 15  1  0
 15 16  2  0
 16 17  1  0
 13 18  1  0
 17 18  2  0
 16 19  1  0
 19 20  2  0
 19 21  2  0
 19 22  1  1
 22 23  1  0
M  END
$$$$
