1KE5_LS1_A_299
     RDKit          3D

 23 25  0  0  0  0  0  0  0  0999 V2000
    8.3267   44.2909   52.5569 N   0  0  0  0  0  0  0  0  0  0  0  0
    7.4640   44.3088   51.4087 C   0  0  0  0  0  0  0  0  0  0  0  0
    8.3207   44.0944   50.2583 C   0  0  0  0  0  0  0  0  0  0  0  0
   10.8592   43.7373   50.0866 C   0  0  0  0  0  0  0  0  0  0  0  0
   12.0662   43.6306   50.7390 C   0  0  0  0  0  0  0  0  0  0  0  0
   12.0765   43.7470   52.1104 C   0  0  0  0  0  0  0  0  0  0  0  0
   10.8947   43.9646   52.7896 C   0  0  0  0  0  0  0  0  0  0  0  0
    9.6708   44.0750   52.1539 C   0  0  0  0  0  0  0  0  0  0  0  0
    9.6686   43.9573   50.7791 C   0  0  0  0  0  0  0  0  0  0  0  0
    6.2114   44.4788   51.4202 O   0  0  0  0  0  0  0  0  0  0  0  0
    7.9736   44.0338   48.9987 C   0  0  0  0  0  0  0  0  0  0  0  0
    6.6464   44.2846   48.5493 N   0  0  0  0  0  0  0  0  0  0  0  0
    6.4364   44.1927   47.1324 C   0  0  0  0  0  0  0  0  0  0  0  0
    5.2550   43.7658   46.5801 C   0  0  0  0  0  0  0  0  0  0  0  0
    5.1031   43.6943   45.1994 C   0  0  0  0  0  0  0  0  0  0  0  0
    6.1568   44.0586   44.3936 C   0  0  0  0  0  0  0  0  0  0  0  0
    7.3420   44.4871   44.9701 C   0  0  0  0  0  0  0  0  0  0  0  0
    7.5072   44.5632   46.3409 C   0  0  0  0  0  0  0  0  0  0  0  0
    6.0960   44.0147   42.6492 S   0  0  2  0  0  0  0  0  0  0  0  0
    7.1392   43.0013   42.2026 O   0  0  0  0  0  0  0  0  0  0  0  0
    6.4947   45.3204   42.0413 O   0  0  0  0  0  0  0  0  0  0  0  0
    4.5148   43.5061   42.1751 N   0  0  0  0  0  0  0  0  0  0  0  0
    4.1420   44.3204   41.0358 C   0  0  0  0  0  0  0  0  0  0  0  0
  1  2  1  0
  2  3  1  0
  4  5  1  0
  5  6  2  0
  6  7  1  0
  1  8  1  0
  7  8  2  0
  3  9  1  0
  4  9  2  0
  8  9  1  0
  2 10  2  0
  3 11  2  0
 11 12  1  0
 12 13  1  0
 13 14  2  0
 14 15  1  0
 15 16  2  0
 16 17  1  0
 13 18  1  0
 17 18  2  0
 16 19  1  0
 19 20  2  0
 19 21  2  0
 19 22  1  1
 22 23  1  0
M  END
$$$$
