1KE5_LS1_A_299
     RDKit          3D

 23 25  0  0  0  0  0  0  0  0999 V2000
  -10.0413   39.6359   55.0032 N   0  0  0  0  0  0  0  0  0  0  0  0
  -11.4656   39.7650   54.8702 C   0  0  0  0  0  0  0  0  0  0  0  0
  -11.7055   40.1855   53.5031 C   0  0  0  0  0  0  0  0  0  0  0  0
  -10.0785   40.6563   51.5711 C   0  0  0  0  0  0  0  0  0  0  0  0
   -8.7749   40.7044   51.1330 C   0  0  0  0  0  0  0  0  0  0  0  0
   -7.7774   40.3777   52.0233 C   0  0  0  0  0  0  0  0  0  0  0  0
   -8.1020   40.0149   53.3149 C   0  0  0  0  0  0  0  0  0  0  0  0
   -9.4053   39.9599   53.7760 C   0  0  0  0  0  0  0  0  0  0  0  0
  -10.3997   40.2889   52.8777 C   0  0  0  0  0  0  0  0  0  0  0  0
  -12.3212   39.5503   55.7756 O   0  0  0  0  0  0  0  0  0  0  0  0
  -12.8545   40.4291   52.9277 C   0  0  0  0  0  0  0  0  0  0  0  0
  -14.1045   40.1235   53.5365 N   0  0  0  0  0  0  0  0  0  0  0  0
  -15.2723   40.4495   52.7684 C   0  0  0  0  0  0  0  0  0  0  0  0
  -15.9544   41.6313   52.9140 C   0  0  0  0  0  0  0  0  0  0  0  0
  -17.0819   41.8982   52.1447 C   0  0  0  0  0  0  0  0  0  0  0  0
  -17.5045   40.9582   51.2335 C   0  0  0  0  0  0  0  0  0  0  0  0
  -16.8025   39.7707   51.1009 C   0  0  0  0  0  0  0  0  0  0  0  0
  -15.6800   39.4918   51.8589 C   0  0  0  0  0  0  0  0  0  0  0  0
  -18.9021   41.1698   50.2085 S   0  0  2  0  0  0  0  0  0  0  0  0
  -20.1037   41.3002   51.1325 O   0  0  0  0  0  0  0  0  0  0  0  0
  -19.1588   39.9696   49.3559 O   0  0  0  0  0  0  0  0  0  0  0  0
  -18.6850   42.6155   49.2885 N   0  0  0  0  0  0  0  0  0  0  0  0
  -17.5600   42.3797   48.4060 C   0  0  0  0  0  0  0  0  0  0  0  0
  1  2  1  0
  2  3  1  0
  4  5  1  0
  5  6  2  0
  6  7  1  0
  1  8  1  0
  7  8  2  0
  3  9  1  0
  4  9  2  0
  8  9  1  0
  2 10  2  0
  3 11  2  0
 11 12  1  0
 12 13  1  0
 13 14  2  0
 14 15  1  0
 15 16  2  0
 16 17  1  0
 13 18  1  0
 17 18  2  0
 16 19  1  0
 19 20  2  0
 19 21  2  0
 19 22  1  6
 22 23  1  0
M  END
$$$$
