7RZL_NPO_A_301
     RDKit          3D

 10 10  0  0  0  0  0  0  0  0999 V2000
   14.4327   -0.0384   55.9139 C   0  0  0  0  0  0  0  0  0  0  0  0
   15.6590    0.1325   56.5395 C   0  0  0  0  0  0  0  0  0  0  0  0
   16.1806    1.4014   56.6539 C   0  0  0  0  0  0  0  0  0  0  0  0
   15.5032    2.4887   56.1391 C   0  0  0  0  0  0  0  0  0  0  0  0
   14.2778    2.3215   55.5209 C   0  0  0  0  0  0  0  0  0  0  0  0
   13.7362    1.0553   55.4011 C   0  0  0  0  0  0  0  0  0  0  0  0
   16.0295    3.7287   56.2637 O   0  0  0  0  0  0  0  0  0  0  0  0
   13.8855   -1.3152   55.7881 N   0  0  0  0  0  0  0  0  0  0  0  0
   12.6778   -1.4472   55.1235 O   0  0  0  0  0  0  0  0  0  0  0  0
   14.4455   -2.2983   56.2478 O   0  0  0  0  0  0  0  0  0  0  0  0
  1  2  2  0
  2  3  1  0
  3  4  2  0
  4  5  1  0
  1  6  1  0
  5  6  2  0
  4  7  1  0
  1  8  1  0
  8  9  1  0
  8 10  2  0
M  CHG  2   8   1   9  -1
M  END
