1T9B_1CS_B_1695
     RDKit          3D

 35 36  0  0  0  0  0  0  0  0999 V2000
  -11.1324   49.7036  127.4328 C   0  0  0  0  0  0  0  0  0  0  0  0
  -10.0943   49.7689  126.4851 O   0  0  0  0  0  0  0  0  0  0  0  0
  -10.2396   49.1140  125.2121 C   0  0  0  0  0  0  0  0  0  0  0  0
  -10.5875   47.7403  125.1979 N   0  0  0  0  0  0  0  0  0  0  0  0
  -10.7247   47.1041  123.9272 C   0  0  0  0  0  0  0  0  0  0  0  0
  -11.0817   45.7222  123.9173 C   0  0  0  0  0  0  0  0  0  0  0  0
  -10.5299   47.8082  122.7145 N   0  0  0  0  0  0  0  0  0  0  0  0
  -10.1798   49.2002  122.7849 C   0  0  0  0  0  0  0  0  0  0  0  0
   -9.9974   49.9029  121.6507 N   0  0  0  0  0  0  0  0  0  0  0  0
   -9.1932   50.9741  121.5278 C   0  0  0  0  0  0  0  0  0  0  0  0
   -8.2921   51.1886  120.6943 O   0  0  0  0  0  0  0  0  0  0  0  0
   -9.4949   51.8306  122.5287 N   0  0  0  0  0  0  0  0  0  0  0  0
  -10.6680   51.5183  123.6570 S   0  0  1  0  0  6  0  0  0  0  0  0
  -10.9197   52.3634  124.7933 O   0  0  0  0  0  0  0  0  0  0  0  0
  -11.5938   51.5241  122.5378 O   0  0  0  0  0  0  0  0  0  0  0  0
  -10.6390   49.7761  123.9020 C   0  0  0  0  0  0  0  0  0  0  0  0
  -11.1232   49.1029  122.7242 C   0  0  0  0  0  0  0  0  0  0  0  0
  -11.2021   47.6310  122.6863 C   0  0  0  0  0  0  0  0  0  0  0  0
  -10.7838   46.8538  123.8700 C   0  0  0  0  0  0  0  0  0  0  0  0
  -10.3084   47.5341  125.0181 C   0  0  0  0  0  0  0  0  0  0  0  0
  -10.2268   48.9759  125.0591 C   0  0  0  0  0  0  0  0  0  0  0  0
  -10.0440   49.8072  124.0434 N   0  0  0  0  0  0  0  0  0  0  0  0
   -9.6417   49.7041  126.4864 Cl  0  0  0  0  0  0  0  0  0  0  0  0
  -10.8480   50.2444  128.3112 H   0  0  0  0  0  0  0  0  0  0  0  0
  -12.0199   50.1356  127.0198 H   0  0  0  0  0  0  0  0  0  0  0  0
  -11.3187   48.6813  127.6879 H   0  0  0  0  0  0  0  0  0  0  0  0
  -11.1826   45.3727  124.9235 H   0  0  0  0  0  0  0  0  0  0  0  0
  -12.0108   45.5975  123.4015 H   0  0  0  0  0  0  0  0  0  0  0  0
  -10.3193   45.1603  123.4194 H   0  0  0  0  0  0  0  0  0  0  0  0
  -10.4904   49.6102  120.8503 H   0  0  0  0  0  0  0  0  0  0  0  0
   -8.9960   52.6771  122.5902 H   0  0  0  0  0  0  0  0  0  0  0  0
  -11.4166   49.6539  121.9023 H   0  0  0  0  0  0  0  0  0  0  0  0
  -11.5462   47.1490  121.8412 H   0  0  0  0  0  0  0  0  0  0  0  0
  -10.8373   45.8231  123.8610 H   0  0  0  0  0  0  0  0  0  0  0  0
  -10.0141   46.9879  125.8428 H   0  0  0  0  0  0  0  0  0  0  0  0
  1  2  1  0
  2  3  1  0
  3  4  2  0
  4  5  1  0
  5  6  1  0
  5  7  2  0
  7  8  1  0
  8  9  1  0
  9 10  1  0
 10 11  2  0
 10 12  1  0
 13 12  1  1
 13 14  2  0
 13 15  2  0
 13 16  1  0
 16 17  2  0
 17 18  1  0
 18 19  2  0
 19 20  1  0
 16 21  1  0
 20 21  2  0
  3 22  1  0
  8 22  2  0
 21 23  1  0
  1 24  1  0
  1 25  1  0
  1 26  1  0
  6 27  1  0
  6 28  1  0
  6 29  1  0
  9 30  1  0
 12 31  1  0
 17 32  1  0
 18 33  1  0
 19 34  1  0
 20 35  1  0
M  END
