1G9V_RQ3_A_801
     RDKit          3D

 48 49  0  0  0  0  0  0  0  0999 V2000
   -0.7298    3.8192    4.1618 C   0  0  0  0  0  0  0  0  0  0  0  0
   -1.4852    2.8510    4.8196 O   0  0  0  0  0  0  0  0  0  0  0  0
   -0.3955    4.8675    4.7789 O   0  0  0  0  0  0  0  0  0  0  0  0
   -0.2683    3.5837    2.7403 C   0  0  0  0  0  0  0  0  0  0  0  0
    1.2218    3.1912    2.8043 C   0  0  0  0  0  0  0  0  0  0  0  0
   -0.4932    4.8806    1.9325 C   0  0  0  0  0  0  0  0  0  0  0  0
   -1.0709    2.5101    2.2169 O   0  0  0  0  0  0  0  0  0  0  0  0
   -1.0704    1.8973    0.9471 C   0  0  0  0  0  0  0  0  0  0  0  0
   -0.1744    2.2138   -0.0952 C   0  0  0  0  0  0  0  0  0  0  0  0
   -0.2494    1.5449   -1.3213 C   0  0  0  0  0  0  0  0  0  0  0  0
   -1.2252    0.5608   -1.5375 C   0  0  0  0  0  0  0  0  0  0  0  0
   -2.0324    0.9019    0.7254 C   0  0  0  0  0  0  0  0  0  0  0  0
   -2.1109    0.2366   -0.5011 C   0  0  0  0  0  0  0  0  0  0  0  0
   -1.2777   -0.1849   -2.8422 C   0  0  0  0  0  0  0  0  0  0  0  0
   -0.4824   -1.4493   -2.7357 C   0  0  0  0  0  0  0  0  0  0  0  0
    0.7397   -1.4391   -3.0398 O   0  0  0  0  0  0  0  0  0  0  0  0
   -1.1099   -2.6576   -2.2759 N   0  0  0  0  0  0  0  0  0  0  0  0
   -0.3787   -3.8191   -1.8521 C   0  0  0  0  0  0  0  0  0  0  0  0
    0.8029   -3.6972   -1.0995 C   0  0  0  0  0  0  0  0  0  0  0  0
    1.4978   -4.8403   -0.6782 C   0  0  0  0  0  0  0  0  0  0  0  0
    0.9844   -6.1112   -0.9775 C   0  0  0  0  0  0  0  0  0  0  0  0
   -0.8821   -5.0938   -2.1423 C   0  0  0  0  0  0  0  0  0  0  0  0
   -0.2101   -6.2428   -1.7014 C   0  0  0  0  0  0  0  0  0  0  0  0
    2.7362   -4.7037    0.1580 C   0  0  0  0  0  0  0  0  0  0  0  0
   -0.7347   -7.6031   -2.0569 C   0  0  0  0  0  0  0  0  0  0  0  0
   -1.7840    2.9866    5.7775 H   0  0  0  0  0  0  0  0  0  0  0  0
    1.6998    3.1449    1.8103 H   0  0  0  0  0  0  0  0  0  0  0  0
    1.7968    3.9389    3.3929 H   0  0  0  0  0  0  0  0  0  0  0  0
    1.3344    2.1989    3.2935 H   0  0  0  0  0  0  0  0  0  0  0  0
   -1.5720    5.1512    1.9435 H   0  0  0  0  0  0  0  0  0  0  0  0
   -0.1808    4.7867    0.8773 H   0  0  0  0  0  0  0  0  0  0  0  0
    0.0868    5.7222    2.3699 H   0  0  0  0  0  0  0  0  0  0  0  0
    0.5890    2.9620    0.0044 H   0  0  0  0  0  0  0  0  0  0  0  0
    0.4564    1.7950   -2.1042 H   0  0  0  0  0  0  0  0  0  0  0  0
   -2.7262    0.6404    1.5143 H   0  0  0  0  0  0  0  0  0  0  0  0
   -2.8591   -0.5345   -0.6412 H   0  0  0  0  0  0  0  0  0  0  0  0
   -2.3327   -0.4210   -3.1058 H   0  0  0  0  0  0  0  0  0  0  0  0
   -0.8731    0.4442   -3.6663 H   0  0  0  0  0  0  0  0  0  0  0  0
   -2.1530   -2.7199   -2.3181 H   0  0  0  0  0  0  0  0  0  0  0  0
    1.1724   -2.7148   -0.8237 H   0  0  0  0  0  0  0  0  0  0  0  0
    1.5095   -6.9977   -0.6396 H   0  0  0  0  0  0  0  0  0  0  0  0
   -1.7964   -5.1888   -2.7159 H   0  0  0  0  0  0  0  0  0  0  0  0
    3.2940   -3.7840   -0.1162 H   0  0  0  0  0  0  0  0  0  0  0  0
    3.4117   -5.5736    0.0064 H   0  0  0  0  0  0  0  0  0  0  0  0
    2.4523   -4.6481    1.2294 H   0  0  0  0  0  0  0  0  0  0  0  0
   -0.3378   -7.9038   -3.0507 H   0  0  0  0  0  0  0  0  0  0  0  0
   -1.8457   -7.5964   -2.0968 H   0  0  0  0  0  0  0  0  0  0  0  0
   -0.4251   -8.3558   -1.3009 H   0  0  0  0  0  0  0  0  0  0  0  0
  1  2  1  0
  1  3  2  0
  1  4  1  0
  4  5  1  0
  4  6  1  0
  4  7  1  0
  7  8  1  0
  8  9  2  0
  9 10  1  0
 10 11  2  0
  8 12  1  0
 11 13  1  0
 12 13  2  0
 11 14  1  0
 14 15  1  0
 15 16  2  0
 15 17  1  0
 17 18  1  0
 18 19  2  0
 19 20  1  0
 20 21  2  0
 18 22  1  0
 21 23  1  0
 22 23  2  0
 20 24  1  0
 23 25  1  0
  2 26  1  0
  5 27  1  0
  5 28  1  0
  5 29  1  0
  6 30  1  0
  6 31  1  0
  6 32  1  0
  9 33  1  0
 10 34  1  0
 12 35  1  0
 13 36  1  0
 14 37  1  0
 14 38  1  0
 17 39  1  0
 19 40  1  0
 21 41  1  0
 22 42  1  0
 24 43  1  0
 24 44  1  0
 24 45  1  0
 25 46  1  0
 25 47  1  0
 25 48  1  0
M  END
