
     RDKit          3D

 14 15  0  0  0  0  0  0  0  0999 V2000
   28.6917   46.0404   16.5073 C   0  0  0  0  0  0  0  0  0  0  0  0
   28.2194   45.4752   15.3238 C   0  0  0  0  0  0  0  0  0  0  0  0
   27.7883   44.1470   15.3215 C   0  0  0  0  0  0  0  0  0  0  0  0
   27.8388   43.3735   16.4847 C   0  0  0  0  0  0  0  0  0  0  0  0
   27.1995   43.4319   13.8097 S   0  0  0  0  0  6  0  0  0  0  0  0
   28.3036   43.9403   17.6800 C   0  0  0  0  0  0  0  0  0  0  0  0
   28.7461   45.2785   17.6836 C   0  0  0  0  0  0  0  0  0  0  0  0
   25.7950   43.1357   13.9587 O   0  0  0  0  0  0  0  0  0  0  0  0
   27.7208   44.2005   12.7027 O   0  0  0  0  0  0  0  0  0  0  0  0
   28.0397   41.9721   13.7806 N   0  0  0  0  0  0  0  0  0  0  0  0
   28.3968   43.0898   18.9279 C   0  0  0  0  0  0  0  0  0  0  0  0
   29.5377   44.8719   20.0536 C   0  0  0  0  0  0  0  0  0  0  0  0
   29.2333   45.9100   18.9664 C   0  0  0  0  0  0  0  0  0  0  0  0
   28.4670   43.8750   20.1659 N   0  0  0  0  0  0  0  0  0  0  0  0
  1  2  4  0
  2  3  4  0
  3  4  4  0
  3  5  1  0
  4  6  4  0
  1  7  4  0
  6  7  4  0
  5  8  2  0
  5  9  2  0
  5 10  1  0
  6 11  1  0
  7 13  1  0
 12 13  1  0
 11 14  1  0
 12 14  1  0
M  END
