7N6F_0I1_A_502
     RDKit          3D

 46 49  0  0  0  0  0  0  0  0999 V2000
    1.2430   -0.6086    0.2689 C   0  0  0  0  0  0  0  0  0  0  0  0
    2.5422   -2.8433   -0.5159 C   0  0  0  0  0  0  0  0  0  0  0  0
    3.3153   -2.3008   -1.6888 C   0  0  2  0  0  0  0  0  0  0  0  0
    3.1392   -1.0561   -3.8825 C   0  0  0  0  0  0  0  0  0  0  0  0
    4.3961   -1.3070   -1.2184 C   0  0  0  0  0  0  0  0  0  0  0  0
    4.9479    1.6452   -4.8585 C   0  0  0  0  0  0  0  0  0  0  0  0
    4.4602    3.8972   -4.3460 C   0  0  0  0  0  0  0  0  0  0  0  0
    2.7834    1.8459   -1.7524 C   0  0  0  0  0  0  0  0  0  0  0  0
    2.8034    0.5464   -1.2146 C   0  0  0  0  0  0  0  0  0  0  0  0
    2.0148    0.2299   -0.1044 C   0  0  0  0  0  0  0  0  0  0  0  0
    1.9340    2.8094   -1.1832 C   0  0  0  0  0  0  0  0  0  0  0  0
    0.1932   -0.3472    2.4043 F   0  0  0  0  0  0  0  0  0  0  0  0
    0.0199   -0.7943    1.1050 C   0  0  2  0  0  0  0  0  0  0  0  0
    0.3447   -2.2431    0.9503 C   0  0  0  0  0  0  0  0  0  0  0  0
    1.5511   -2.0427    0.1268 N   0  0  0  0  0  0  0  0  0  0  0  0
    2.7818   -4.0010   -0.0785 O   0  0  0  0  0  0  0  0  0  0  0  0
    2.3598   -1.6353   -2.6978 C   0  0  0  0  0  0  0  0  0  0  0  0
    4.2090   -0.1816   -3.3894 N   0  0  0  0  0  0  0  0  0  0  0  0
    5.1581   -0.7313   -2.4161 C   0  0  0  0  0  0  0  0  0  0  0  0
    4.2323    1.2157   -3.7340 C   0  0  0  0  0  0  0  0  0  0  0  0
    5.0485    2.9687   -5.1407 N   0  0  0  0  0  0  0  0  0  0  0  0
    3.7502    3.5089   -3.2563 N   0  0  0  0  0  0  0  0  0  0  0  0
    3.6081    2.1953   -2.9302 C   0  0  0  0  0  0  0  0  0  0  0  0
    1.1890    1.2010    0.4682 C   0  0  0  0  0  0  0  0  0  0  0  0
    0.4238    0.8919    1.5441 F   0  0  0  0  0  0  0  0  0  0  0  0
    1.1454    2.4885   -0.0739 C   0  0  0  0  0  0  0  0  0  0  0  0
    2.0621   -0.0778    0.8036 H   0  0  0  0  0  0  0  0  0  0  0  0
    1.0166   -0.1525   -0.7203 H   0  0  0  0  0  0  0  0  0  0  0  0
    3.8259   -3.1474   -2.2001 H   0  0  0  0  0  0  0  0  0  0  0  0
    3.5841   -1.8829   -4.4777 H   0  0  0  0  0  0  0  0  0  0  0  0
    2.4386   -0.4966   -4.5402 H   0  0  0  0  0  0  0  0  0  0  0  0
    3.9279   -0.4709   -0.6535 H   0  0  0  0  0  0  0  0  0  0  0  0
    5.1138   -1.8229   -0.5438 H   0  0  0  0  0  0  0  0  0  0  0  0
    5.4486    0.9285   -5.4954 H   0  0  0  0  0  0  0  0  0  0  0  0
    4.5541    4.9480   -4.5828 H   0  0  0  0  0  0  0  0  0  0  0  0
    3.4194   -0.2248   -1.6591 H   0  0  0  0  0  0  0  0  0  0  0  0
    2.0408   -0.7706    0.3079 H   0  0  0  0  0  0  0  0  0  0  0  0
    1.8923    3.8129   -1.5893 H   0  0  0  0  0  0  0  0  0  0  0  0
   -0.9264   -0.4760    0.6170 H   0  0  0  0  0  0  0  0  0  0  0  0
   -0.4356   -2.7953    0.3808 H   0  0  0  0  0  0  0  0  0  0  0  0
    0.5989   -2.7393    1.9133 H   0  0  0  0  0  0  0  0  0  0  0  0
    1.7942   -0.8148   -2.2029 H   0  0  0  0  0  0  0  0  0  0  0  0
    1.6289   -2.3840   -3.0742 H   0  0  0  0  0  0  0  0  0  0  0  0
    5.8696    0.0487   -2.0670 H   0  0  0  0  0  0  0  0  0  0  0  0
    5.7516   -1.5367   -2.9008 H   0  0  0  0  0  0  0  0  0  0  0  0
    0.5008    3.2393    0.3649 H   0  0  0  0  0  0  0  0  0  0  0  0
  2  3  1  0
  3  5  1  0
  8  9  4  0
  9 10  4  0
  8 11  4  0
 12 13  1  0
  1 13  1  0
 13 14  1  0
  1 15  1  0
 14 15  1  0
  2 15  1  0
  2 16  2  0
  3 17  1  0
  4 17  1  0
  4 18  1  0
  5 19  1  0
 18 19  1  0
  6 20  4  0
 18 20  1  0
  6 21  4  0
  7 21  4  0
  7 22  4  0
 20 23  4  0
 22 23  4  0
  8 23  1  0
 10 24  4  0
 24 25  1  0
 11 26  4  0
 24 26  4  0
  1 27  1  0
  1 28  1  0
  3 29  1  1
  4 30  1  0
  4 31  1  0
  5 32  1  0
  5 33  1  0
  6 34  1  0
  7 35  1  0
  9 36  1  0
 10 37  1  0
 11 38  1  0
 13 39  1  1
 14 40  1  0
 14 41  1  0
 17 42  1  0
 17 43  1  0
 19 44  1  0
 19 45  1  0
 26 46  1  0
M  END
