
     RDKit          3D

 30 33  0  0  0  0  0  0  0  0999 V2000
   16.9031   17.4060   33.5103 O   0  0  0  0  0  0  0  0  0  0  0  0
   13.4974   17.6579   36.2312 O   0  0  0  0  0  0  0  0  0  0  0  0
   14.2661   18.7879   35.8095 C   0  0  1  0  0  0  0  0  0  0  0  0
   15.6437   18.2944   35.3509 C   0  0  0  0  0  0  0  0  0  0  0  0
   15.6083   17.8862   33.8784 C   0  0  1  0  0  0  0  0  0  0  0  0
   15.2085   19.0694   32.9740 C   0  0  0  0  0  0  0  0  0  0  0  0
   14.3395   20.1013   33.6684 C   0  0  0  0  0  0  0  0  0  0  0  0
   14.4278   21.4086   33.3474 C   0  0  0  0  0  0  0  0  0  0  0  0
   13.7309   22.5029   33.9952 C   0  0  0  0  0  0  0  0  0  0  0  0
   13.5233   23.7410   33.5028 C   0  0  0  0  0  0  0  0  0  0  0  0
   13.9833   24.2540   32.1488 C   0  0  0  0  0  0  0  0  0  0  0  0
   13.5066   19.5378   34.7273 C   0  0  0  0  0  0  0  0  0  0  0  0
   12.8575   24.9359   31.3597 C   0  0  0  0  0  0  0  0  0  0  0  0
   12.0813   25.9769   32.1825 C   0  0  0  0  0  0  0  0  0  0  0  0
   11.5722   25.3973   33.5208 C   0  0  1  0  0  0  0  0  0  0  0  0
   12.8057   24.8266   34.2821 C   0  0  1  0  0  0  0  0  0  0  0  0
   12.2633   24.5837   35.6914 C   0  0  0  0  0  0  0  0  0  0  0  0
   11.3022   25.7559   35.9333 C   0  0  0  0  0  0  0  0  0  0  0  0
   11.1018   26.4591   34.5634 C   0  0  2  0  0  0  0  0  0  0  0  0
   10.5034   24.3172   33.2439 C   0  0  0  0  0  0  0  0  0  0  0  0
   12.1653   19.6032   34.6694 C   0  0  0  0  0  0  0  0  0  0  0  0
    9.7475   27.2094   34.4508 C   0  0  1  0  0  0  0  0  0  0  0  0
    8.5818   26.3143   34.8037 C   0  0  0  0  0  0  0  0  0  0  0  0
    6.3117   25.3078   34.3753 C   0  0  2  0  0  0  0  0  0  0  0  0
    9.6091   28.5321   35.2095 C   0  0  0  0  0  0  0  0  0  0  0  0
    5.8163   24.3835   33.2925 C   0  0  0  0  0  0  0  0  0  0  0  0
    4.5762   24.6573   32.4716 C   0  0  0  0  0  0  0  0  0  0  0  0
    4.5780   23.5375   33.4760 C   0  0  0  0  0  0  0  0  0  0  0  0
    5.2440   26.1781   34.7396 O   0  0  0  0  0  0  0  0  0  0  0  0
    7.4779   26.1917   34.0464 C   0  0  0  0  0  0  0  0  0  0  0  0
  3  2  1  6
  3  4  1  0
  5  1  1  6
  4  5  1  0
  5  6  1  0
  6  7  1  0
  7  8  2  0
  8  9  1  0
  9 10  2  0
 10 11  1  0
  3 12  1  0
  7 12  1  0
 11 13  1  0
 13 14  1  0
 14 15  1  0
 10 16  1  0
 15 16  1  0
 16 17  1  1
 17 18  1  0
 15 19  1  0
 19 18  1  1
 15 20  1  6
 12 21  2  0
 19 22  1  0
 22 23  1  0
 22 25  1  1
 24 26  1  0
 26 27  1  0
 26 28  1  0
 27 28  1  0
 24 29  1  6
 23 30  2  0
 24 30  1  0
M  END
