8SLG_G5A_B_504
     RDKit          3D

 27 29  0  0  0  0  0  0  0  0999 V2000
  -42.4721   70.7667    1.5006 C   0  0  0  0  0  0  0  0  0  0  0  0
  -43.7124   68.8259    0.7435 N   0  0  0  0  0  0  0  0  0  0  0  0
  -43.4605   70.9239    2.2617 O   0  0  0  0  0  0  0  0  0  0  0  0
  -41.2526   72.8464    2.8484 S   0  0  2  0  0  6  0  0  0  0  0  0
  -43.8649   66.5345   10.2067 N   0  0  0  0  0  0  0  0  0  0  0  0
  -43.4275   67.6838   10.7509 C   0  0  0  0  0  0  0  0  0  0  0  0
  -42.9179   68.7003   10.0388 N   0  0  0  0  0  0  0  0  0  0  0  0
  -42.8410   68.5596    8.7055 C   0  0  0  0  0  0  0  0  0  0  0  0
  -43.2854   67.3850    8.1241 C   0  0  0  0  0  0  0  0  0  0  0  0
  -43.8090   66.3451    8.8741 C   0  0  0  0  0  0  0  0  0  0  0  0
  -44.2557   65.1573    8.2596 N   0  0  0  0  0  0  0  0  0  0  0  0
  -43.1248   67.4398    6.7928 N   0  0  0  0  0  0  0  0  0  0  0  0
  -42.5751   68.6540    6.5164 C   0  0  0  0  0  0  0  0  0  0  0  0
  -42.4112   69.3172    7.6902 N   0  0  0  0  0  0  0  0  0  0  0  0
  -42.5599   69.6717    0.4994 C   0  0  0  0  0  0  0  0  0  0  0  0
  -41.8490   70.6656    7.8523 C   0  0  1  0  0  0  0  0  0  0  0  0
  -42.2710   73.9057    2.5287 O   0  0  0  0  0  0  0  0  0  0  0  0
  -40.3555   70.6531    7.9474 C   0  0  2  0  0  0  0  0  0  0  0  0
  -39.9337   71.3058    9.1100 O   0  0  0  0  0  0  0  0  0  0  0  0
  -39.9031   73.5100    2.8036 O   0  0  0  0  0  0  0  0  0  0  0  0
  -39.9608   71.5420    6.7824 C   0  0  2  0  0  0  0  0  0  0  0  0
  -38.8114   72.2729    7.0564 O   0  0  0  0  0  0  0  0  0  0  0  0
  -41.3643   71.6235    1.6430 N   0  0  0  0  0  0  0  0  0  0  0  0
  -41.1869   72.4270    6.6928 C   0  0  2  0  0  0  0  0  0  0  0  0
  -42.2041   71.4800    6.7988 O   0  0  0  0  0  0  0  0  0  0  0  0
  -41.2217   73.1565    5.3764 C   0  0  0  0  0  0  0  0  0  0  0  0
  -41.5938   72.2491    4.3838 O   0  0  0  0  0  0  0  0  0  0  0  0
  1  3  2  0
  5  6  2  0
  6  7  1  0
  7  8  2  0
  8  9  1  0
  9 10  2  0
  5 10  1  0
 10 11  1  0
  9 12  1  0
 12 13  2  0
 13 14  1  0
  8 14  1  0
 15  2  1  6
  1 15  1  0
 16 14  1  6
  4 17  2  0
 16 18  1  0
 18 19  1  1
  4 20  2  0
 18 21  1  0
 21 22  1  1
  1 23  1  0
  4 23  1  6
 21 24  1  0
 24 25  1  6
 16 25  1  0
 24 26  1  0
  4 27  1  0
 26 27  1  1
M  END
$$$$
