7SZA_DUI_A_501
     RDKit          3D

 20 22  0  0  0  0  0  0  0  0999 V2000
  -37.9038    0.0379   19.2690 C   0  0  0  0  0  0  0  0  0  0  0  0
  -39.0687   -0.5853   19.6383 C   0  0  0  0  0  0  0  0  0  0  0  0
  -39.7058   -1.5066   18.8127 C   0  0  0  0  0  0  0  0  0  0  0  0
  -39.1308   -1.7893   17.5853 C   0  0  0  0  0  0  0  0  0  0  0  0
  -39.4948   -2.6726   16.4817 C   0  0  0  0  0  0  0  0  0  0  0  0
  -38.5527   -3.2933   14.1916 C   0  0  2  0  0  0  0  0  0  0  0  0
  -38.7605   -5.5842   11.0221 O   0  0  0  0  0  0  0  0  0  0  0  0
  -37.9736   -5.2103   15.5488 O   0  0  0  0  0  0  0  0  0  0  0  0
  -38.5342   -2.5791   15.4329 N   0  0  0  0  0  0  0  0  0  0  0  0
  -39.7390   -3.0795   13.3406 C   0  0  0  0  0  0  0  0  0  0  0  0
  -40.1533   -4.2733   12.5032 C   0  0  0  0  0  0  0  0  0  0  0  0
  -38.1890   -5.5799   13.2637 N   0  0  0  0  0  0  0  0  0  0  0  0
  -36.1078    0.4002   17.6398 N   0  0  0  0  0  0  0  0  0  0  0  0
  -37.3231   -0.2353   18.0512 C   0  0  0  0  0  0  0  0  0  0  0  0
  -40.5056   -3.4081   16.4573 O   0  0  0  0  0  0  0  0  0  0  0  0
  -38.2209   -4.7242   14.4220 C   0  0  0  0  0  0  0  0  0  0  0  0
  -37.5728   -1.6174   15.9200 C   0  0  0  0  0  0  0  0  0  0  0  0
  -37.9709   -1.1550   17.2419 C   0  0  0  0  0  0  0  0  0  0  0  0
  -39.0267   -5.1707   12.1612 C   0  0  0  0  0  0  0  0  0  0  0  0
  -36.5579   -1.2820   15.2308 O   0  0  0  0  0  0  0  0  0  0  0  0
  1  2  2  0
  2  3  1  0
  3  4  2  0
  4  5  1  0
  5  9  1  0
  6  9  1  1
  6 10  1  0
 10 11  1  0
  1 14  1  0
 13 14  1  0
  5 15  2  0
 12 16  1  0
  8 16  2  0
  6 16  1  0
  9 17  1  0
  4 18  1  0
 17 18  1  0
 14 18  2  0
  7 19  2  0
 12 19  1  0
 11 19  1  0
 17 20  2  0
M  END
$$$$
