7SZA_DUI_A_501
     RDKit          3D

 20 22  0  0  0  0  0  0  0  0999 V2000
  -55.4580  -11.4740   26.9450 C   0  0  0  0  0  0  0  0  0  0  0  0
  -55.5760  -10.8850   25.6840 C   0  0  0  0  0  0  0  0  0  0  0  0
  -55.8840  -11.6670   24.5500 C   0  0  0  0  0  0  0  0  0  0  0  0
  -56.0630  -13.0290   24.7480 C   0  0  0  0  0  0  0  0  0  0  0  0
  -56.3780  -14.0810   23.8940 C   0  0  0  0  0  0  0  0  0  0  0  0
  -56.7770  -16.5880   23.9510 C   0  0  2  0  0  0  0  0  0  0  0  0
  -57.3200  -18.4890   20.4020 O   0  0  0  0  0  0  0  0  0  0  0  0
  -58.9640  -15.7850   23.5250 O   0  0  0  0  0  0  0  0  0  0  0  0
  -56.4620  -15.2580   24.5010 N   0  0  0  0  0  0  0  0  0  0  0  0
  -55.5960  -17.0720   23.1310 C   0  0  0  0  0  0  0  0  0  0  0  0
  -56.0430  -18.3300   22.4060 C   0  0  0  0  0  0  0  0  0  0  0  0
  -58.0750  -17.0470   21.9250 N   0  0  0  0  0  0  0  0  0  0  0  0
  -55.5550  -13.4460   28.3500 N   0  0  0  0  0  0  0  0  0  0  0  0
  -55.6400  -12.8460   27.1150 C   0  0  0  0  0  0  0  0  0  0  0  0
  -56.5570  -13.9370   22.6300 O   0  0  0  0  0  0  0  0  0  0  0  0
  -58.0200  -16.4500   23.1140 C   0  0  0  0  0  0  0  0  0  0  0  0
  -56.2190  -14.9520   25.7760 C   0  0  0  0  0  0  0  0  0  0  0  0
  -55.9520  -13.6080   26.0090 C   0  0  0  0  0  0  0  0  0  0  0  0
  -57.2000  -17.9620   21.5000 C   0  0  0  0  0  0  0  0  0  0  0  0
  -56.2400  -15.8440   26.6820 O   0  0  0  0  0  0  0  0  0  0  0  0
  1  2  2  0
  2  3  1  0
  3  4  2  0
  4  5  1  0
  5  9  1  0
  6  9  1  6
  6 10  1  0
 10 11  1  0
  1 14  1  0
 13 14  1  0
  5 15  2  0
 12 16  1  0
  8 16  2  0
  6 16  1  0
  9 17  1  0
  4 18  1  0
 17 18  1  0
 14 18  2  0
  7 19  2  0
 12 19  1  0
 11 19  1  0
 17 20  2  0
M  END
$$$$
