6XCT_478_A_401
     RDKit          3D

 35 37  0  0  0  0  0  0  0  0999 V2000
    9.7980   10.7080  -10.3170 C   0  0  0  0  0  0  0  0  0  0  0  0
    9.1380   11.0550   -8.0900 C   0  0  0  0  0  0  0  0  0  0  0  0
   10.8010   13.6670  -10.0410 C   0  0  0  0  0  0  0  0  0  0  0  0
   10.1080   11.6490   -9.1340 C   0  0  2  0  0  0  0  0  0  0  0  0
   11.3000   15.9030  -10.8720 C   0  0  2  0  0  0  0  0  0  0  0  0
   11.1750   17.2100  -10.0740 C   0  0  1  0  0  0  0  0  0  0  0  0
   11.0230   16.0610  -12.3750 C   0  0  0  0  0  0  0  0  0  0  0  0
   11.2050   14.7520  -13.1190 C   0  0  0  0  0  0  0  0  0  0  0  0
   12.4650   14.3290  -13.5130 C   0  0  0  0  0  0  0  0  0  0  0  0
   10.1180   13.9410  -13.4130 C   0  0  0  0  0  0  0  0  0  0  0  0
   12.6380   13.1270  -14.1830 C   0  0  0  0  0  0  0  0  0  0  0  0
   10.2930   12.7370  -14.0790 C   0  0  0  0  0  0  0  0  0  0  0  0
   11.5510   12.3320  -14.4590 C   0  0  0  0  0  0  0  0  0  0  0  0
   12.3230   18.1510  -10.3860 C   0  0  0  0  0  0  0  0  0  0  0  0
   14.0350   18.7710   -8.7090 C   0  0  0  0  0  0  0  0  0  0  0  0
   13.7780   18.3090   -7.2900 C   0  0  0  0  0  0  0  0  0  0  0  0
   16.0190   18.4080  -10.9170 C   0  0  0  0  0  0  0  0  0  0  0  0
   15.8770   19.3620  -11.9180 C   0  0  0  0  0  0  0  0  0  0  0  0
   16.8550   20.3260  -12.0840 C   0  0  0  0  0  0  0  0  0  0  0  0
   17.9820   20.3610  -11.2480 C   0  0  0  0  0  0  0  0  0  0  0  0
   18.1000   19.3980  -10.2380 C   0  0  0  0  0  0  0  0  0  0  0  0
   17.1300   18.4270  -10.0780 C   0  0  0  0  0  0  0  0  0  0  0  0
   12.5730   17.4410   -7.1240 C   0  0  0  0  0  0  0  0  0  0  0  0
   13.6560   19.5800   -6.4230 C   0  0  0  0  0  0  0  0  0  0  0  0
    7.8980   10.9090   -8.9490 C   0  0  0  0  0  0  0  0  0  0  0  0
   10.4010   14.9080  -10.3030 N   0  0  0  0  0  0  0  0  0  0  0  0
   13.6110   17.8330   -9.7590 N   0  0  0  0  0  0  0  0  0  0  0  0
   18.9550   21.3240  -11.4130 N   0  0  0  0  0  0  0  0  0  0  0  0
    9.7650   12.9680   -9.4870 O   0  0  0  0  0  0  0  0  0  0  0  0
   11.9080   13.1970  -10.2740 O   0  0  0  0  0  0  0  0  0  0  0  0
    9.9710   17.9040  -10.4040 O   0  0  0  0  0  0  0  0  0  0  0  0
   14.2050   16.8630  -11.9570 O   0  0  0  0  0  0  0  0  0  0  0  0
   15.3450   16.1200   -9.9040 O   0  0  0  0  0  0  0  0  0  0  0  0
    8.3670   10.5190  -10.2560 O   0  0  0  0  0  0  0  0  0  0  0  0
   14.7790   17.1730  -10.6860 S   0  0  0  0  0  0  0  0  0  0  0  0
  1  4  1  0
  2  4  1  0
  5  6  1  0
  5  7  1  6
  7  8  1  0
  8  9  2  0
  8 10  1  0
  9 11  1  0
 10 12  2  0
 11 13  2  0
 12 13  1  0
  6 14  1  0
 15 16  1  0
 17 18  2  0
 18 19  1  0
 19 20  2  0
 20 21  1  0
 17 22  1  0
 21 22  2  0
 16 23  1  0
 16 24  1  0
  2 25  1  0
  3 26  1  0
  5 26  1  0
 14 27  1  0
 15 27  1  0
 20 28  1  0
  3 29  1  0
  4 29  1  6
  3 30  2  0
  6 31  1  6
  1 34  1  0
 25 34  1  0
 17 35  1  0
 27 35  1  0
 32 35  2  0
 33 35  2  0
M  END
$$$$
