7F51_BA7_A_402
     RDKit          3D

 71 75  0  0  0  0  0  0  0  0999 V2000
   -2.0403    7.3505   -0.9639 C   0  0  0  0  0  0  0  0  0  0  0  0
   -4.9952    4.6345    1.6063 C   0  0  2  0  0  0  0  0  0  0  0  0
   -2.7793    6.5367   -3.1158 C   0  0  0  0  0  0  0  0  0  0  0  0
   -3.0524    7.2128   -1.9101 C   0  0  0  0  0  0  0  0  0  0  0  0
   -4.4379    8.3402    1.3867 C   0  0  2  0  0  0  0  0  0  0  0  0
   -1.9472    3.4800   -1.3296 C   0  0  0  0  0  0  0  0  0  0  0  0
   -4.8739    5.5276    2.8197 C   0  0  1  0  0  0  0  0  0  0  0  0
   -4.0257    9.5475    0.5316 C   0  0  1  0  0  0  0  0  0  0  0  0
   -0.7729    6.8546   -1.1935 C   0  0  0  0  0  0  0  0  0  0  0  0
   -5.0654    6.9346    2.2093 C   0  0  1  0  0  0  0  0  0  0  0  0
   -4.2177   10.7158    1.5535 C   0  0  1  0  0  0  0  0  0  0  0  0
   -3.0997    3.2469    0.7212 C   0  0  0  0  0  0  0  0  0  0  0  0
   -4.5149    6.7927    0.8070 C   0  0  1  0  0  0  0  0  0  0  0  0
   -4.0085   10.0275    2.8980 C   0  0  1  0  0  0  0  0  0  0  0  0
   -2.3328    2.2056    1.0657 C   0  0  0  0  0  0  0  0  0  0  0  0
   -3.2200    7.5877    0.6435 C   0  0  0  0  0  0  0  0  0  0  0  0
   -4.6890   10.8285    4.0110 C   0  0  0  0  0  0  0  0  0  0  0  0
   -1.3617    1.8093    0.2067 C   0  0  0  0  0  0  0  0  0  0  0  0
   -2.3032    8.0198    0.2311 C   0  0  0  0  0  0  0  0  0  0  0  0
   -0.4916    6.1788   -2.3769 C   0  0  0  0  0  0  0  0  0  0  0  0
   -3.7927    2.5775    2.6639 C   0  0  0  0  0  0  0  0  0  0  0  0
   -1.4758    6.0291   -3.3221 C   0  0  0  0  0  0  0  0  0  0  0  0
   -1.1362    2.4116   -0.9538 N   0  0  0  0  0  0  0  0  0  0  0  0
   -2.9245    3.8987   -0.4558 N   0  0  0  0  0  0  0  0  0  0  0  0
   -0.5870    0.7955    0.5312 N   0  0  0  0  0  0  0  0  0  0  0  0
   -2.7787    1.7816    2.2887 N   0  0  0  0  0  0  0  0  0  0  0  0
   -4.0268    3.4461    1.6734 N   0  0  0  0  0  4  0  0  0  0  0  0
   -3.7539    7.3704    3.4362 O   0  0  0  0  0  0  0  0  0  0  0  0
   -1.1959   10.8670    5.2989 O   0  0  0  0  0  0  0  0  0  0  0  0
   -5.4877    7.6481    0.7402 O   0  0  0  0  0  0  0  0  0  0  0  0
   -5.9492    5.1921    3.6796 O   0  0  0  0  0  0  0  0  0  0  0  0
   -4.9183    9.6397    3.0353 O   0  0  0  0  0  0  0  0  0  0  0  0
   -2.6197    8.8874    6.1933 O   0  0  0  0  0  0  0  0  0  0  0  0
   -2.6749    9.3254    0.1482 O   0  0  0  0  0  0  0  0  0  0  0  0
   -6.4396    7.2593    2.0829 O   0  0  0  0  0  0  0  0  0  0  0  0
   -2.4137    9.3537    3.7585 O   0  0  0  0  0  0  0  0  0  0  0  0
   -3.2483   11.6897    1.3178 O   0  0  0  0  0  0  0  0  0  0  0  0
   -4.2009    5.3842    0.6238 O   0  0  0  0  0  0  0  0  0  0  0  0
   -4.8249    8.8743    2.7405 O   0  0  0  0  0  0  0  0  0  0  0  0
   -3.3445    8.7874    1.4158 O   0  0  0  0  0  0  0  0  0  0  0  0
   -3.7972   10.8258    5.1499 O   0  0  0  0  0  0  0  0  0  0  0  0
   -2.2714    7.4048    1.2877 O   0  0  0  0  0  0  0  0  0  0  0  0
   -3.7081    8.7647    2.9643 P   0  0  1  0  0  5  0  0  0  0  0  0
   -2.4004   10.0055    5.1844 P   0  0  2  0  0  5  0  0  0  0  0  0
   -6.0210    4.3668    1.4606 H   0  0  0  0  0  0  0  0  0  0  0  0
   -3.5131    6.4148   -3.8312 H   0  0  0  0  0  0  0  0  0  0  0  0
   -3.9914    7.6014   -1.7305 H   0  0  0  0  0  0  0  0  0  0  0  0
   -3.6446    7.6333    1.5117 H   0  0  0  0  0  0  0  0  0  0  0  0
   -1.8183    3.9463   -2.2411 H   0  0  0  0  0  0  0  0  0  0  0  0
   -3.9642    5.4493    3.3779 H   0  0  0  0  0  0  0  0  0  0  0  0
   -4.5640    9.7356   -0.3739 H   0  0  0  0  0  0  0  0  0  0  0  0
   -0.0328    6.9852   -0.4863 H   0  0  0  0  0  0  0  0  0  0  0  0
   -4.5984    7.6861    2.8113 H   0  0  0  0  0  0  0  0  0  0  0  0
   -5.1643   11.2112    1.4947 H   0  0  0  0  0  0  0  0  0  0  0  0
   -5.2299    7.1547    0.0980 H   0  0  0  0  0  0  0  0  0  0  0  0
   -2.9754    9.8813    3.1354 H   0  0  0  0  0  0  0  0  0  0  0  0
   -3.0701    7.8318   -0.3874 H   0  0  0  0  0  0  0  0  0  0  0  0
   -2.3823    7.0123    0.9781 H   0  0  0  0  0  0  0  0  0  0  0  0
   -5.6202   10.3717    4.2740 H   0  0  0  0  0  0  0  0  0  0  0  0
   -4.8896   11.8290    3.6892 H   0  0  0  0  0  0  0  0  0  0  0  0
    0.4509    5.7926   -2.5431 H   0  0  0  0  0  0  0  0  0  0  0  0
   -4.3025    2.5280    3.5596 H   0  0  0  0  0  0  0  0  0  0  0  0
   -1.2597    5.5354   -4.2023 H   0  0  0  0  0  0  0  0  0  0  0  0
   -0.7245    0.3242    1.3845 H   0  0  0  0  0  0  0  0  0  0  0  0
    0.1300    0.5088   -0.0795 H   0  0  0  0  0  0  0  0  0  0  0  0
   -6.2358    8.2500    0.6033 H   0  0  0  0  0  0  0  0  0  0  0  0
   -6.7854    5.2568    3.1922 H   0  0  0  0  0  0  0  0  0  0  0  0
   -5.2252    9.6932    3.9539 H   0  0  0  0  0  0  0  0  0  0  0  0
   -2.6174    9.2562    7.0904 H   0  0  0  0  0  0  0  0  0  0  0  0
   -6.8818    6.5886    1.5393 H   0  0  0  0  0  0  0  0  0  0  0  0
   -2.3673   11.2861    1.3611 H   0  0  0  0  0  0  0  0  0  0  0  0
  3  4  4  0
  1  4  4  0
  2  7  1  0
  5  8  1  0
  1  9  4  0
  7 10  1  0
  8 11  1  0
 10 13  1  0
 11 14  1  0
 12 15  4  0
 13 16  1  0
 14 17  1  0
 15 18  4  0
  1 19  1  0
  9 20  4  0
 20 22  4  0
  3 22  4  0
  6 23  4  0
 18 23  4  0
 12 24  4  0
  6 24  4  0
 18 25  1  0
 21 26  4  0
 15 26  4  0
  2 27  1  0
 21 27  4  0
 12 27  4  0
  5 30  1  0
  7 31  1  0
 19 34  1  0
  8 34  1  0
 10 35  1  0
 11 37  1  0
 13 38  1  0
  2 38  1  0
  5 39  1  0
 14 39  1  0
 16 40  1  0
 17 41  1  0
 19 42  2  0
 43 36  1  1
 28 43  2  0
 43 32  1  0
 40 43  1  0
 44 41  1  6
 29 44  2  0
 44 33  1  0
 36 44  1  0
  2 45  1  6
  3 46  1  0
  4 47  1  0
  5 48  1  1
  6 49  1  0
  7 50  1  1
  8 51  1  6
  9 52  1  0
 10 53  1  1
 11 54  1  1
 13 55  1  6
 14 56  1  1
 16 57  1  0
 16 58  1  0
 17 59  1  0
 17 60  1  0
 20 61  1  0
 21 62  1  0
 22 63  1  0
 25 64  1  0
 25 65  1  0
 30 66  1  0
 31 67  1  0
 32 68  1  0
 33 69  1  0
 35 70  1  0
 37 71  1  0
M  CHG  1  27   1
M  END
