5SD5_HWI_A_202
     RDKit          3D

 56 58  0  0  0  0  0  0  0  0999 V2000
    7.6429    4.8738   15.6593 C   0  0  0  0  0  0  0  0  0  0  0  0
    8.3214    2.0810   17.0357 C   0  0  0  0  0  0  0  0  0  0  0  0
    6.9761    3.2346   18.7097 C   0  0  0  0  0  0  0  0  0  0  0  0
    4.7910    4.1659   18.6927 C   0  0  0  0  0  0  0  0  0  0  0  0
    5.2605    5.2343   17.9426 C   0  0  0  0  0  0  0  0  0  0  0  0
    6.5867    5.3141   17.5482 C   0  0  0  0  0  0  0  0  0  0  0  0
    8.4637    6.9566   16.9724 C   0  0  0  0  0  0  0  0  0  0  0  0
    7.0140    2.7442   16.6103 C   0  0  0  0  0  0  0  0  0  0  0  0
    9.4258    3.1211   17.1398 C   0  0  0  0  0  0  0  0  0  0  0  0
    7.4472    4.2889   17.9588 C   0  0  0  0  0  0  0  0  0  0  0  0
    5.6357    3.1499   19.0908 C   0  0  0  0  0  0  0  0  0  0  0  0
    5.1281    1.9861   19.9263 C   0  0  0  0  0  0  0  0  0  0  0  0
    9.4768    3.7171   13.5916 C   0  0  0  0  0  0  0  0  0  0  0  0
    9.9957    4.5236   14.8052 C   0  0  0  0  0  0  0  0  0  0  0  0
    8.8850    5.3608   15.3955 C   0  0  0  0  0  0  0  0  0  0  0  0
    8.2330    7.4425   16.1306 C   0  0  0  0  0  0  0  0  0  0  0  0
    6.6734    5.7604   16.2116 C   0  0  0  0  0  0  0  0  0  0  0  0
    7.8634    8.3788   16.9172 C   0  0  2  0  0  0  0  0  0  0  0  0
    6.4566    7.7212   16.7142 C   0  0  0  0  0  0  0  0  0  0  0  0
    8.2738    9.2103   15.6644 C   0  0  0  0  0  0  0  0  0  0  0  0
    9.1836    6.6543   15.6399 N   0  0  0  0  0  0  0  0  0  0  0  0
    8.5726    8.7397   16.3418 N   0  0  0  0  0  0  0  0  0  0  0  0
    6.9988    7.0466   16.4396 N   0  0  0  0  0  0  0  0  0  0  0  0
    5.4447    5.3627   16.5143 N   0  0  0  0  0  0  0  0  0  0  0  0
    7.0817    6.3803   16.8286 N   0  0  0  0  0  0  0  0  0  0  0  0
    7.3276    3.5403   15.4356 O   0  0  0  0  0  0  0  0  0  0  0  0
    8.7690    4.3597   17.5491 O   0  0  0  0  0  0  0  0  0  0  0  0
    9.4768    9.4991   15.5444 O   0  0  0  0  0  0  0  0  0  0  0  0
    7.3538    9.5186   14.8417 O   0  0  0  0  0  0  0  0  0  0  0  0
    8.1866    1.6115   17.9877 H   0  0  0  0  0  0  0  0  0  0  0  0
    8.5969    1.3498   16.3047 H   0  0  0  0  0  0  0  0  0  0  0  0
    7.6296    2.4895   18.9976 H   0  0  0  0  0  0  0  0  0  0  0  0
    3.7941    4.1304   18.9573 H   0  0  0  0  0  0  0  0  0  0  0  0
    4.6077    5.9864   17.6723 H   0  0  0  0  0  0  0  0  0  0  0  0
    9.1214    6.7264   16.1603 H   0  0  0  0  0  0  0  0  0  0  0  0
    9.0956    6.6624   17.7843 H   0  0  0  0  0  0  0  0  0  0  0  0
    6.2819    2.0015   16.3707 H   0  0  0  0  0  0  0  0  0  0  0  0
    6.6099    3.3490   17.3951 H   0  0  0  0  0  0  0  0  0  0  0  0
   10.1495    2.8243   17.8700 H   0  0  0  0  0  0  0  0  0  0  0  0
    9.9447    3.2387   16.2114 H   0  0  0  0  0  0  0  0  0  0  0  0
    5.9347    1.3124   20.1267 H   0  0  0  0  0  0  0  0  0  0  0  0
    4.7338    2.3554   20.8500 H   0  0  0  0  0  0  0  0  0  0  0  0
    4.3583    1.4713   19.3903 H   0  0  0  0  0  0  0  0  0  0  0  0
   10.2745    3.1304   13.1859 H   0  0  0  0  0  0  0  0  0  0  0  0
    8.6832    3.0716   13.9053 H   0  0  0  0  0  0  0  0  0  0  0  0
    9.1140    4.3913   12.8442 H   0  0  0  0  0  0  0  0  0  0  0  0
   10.3598    3.8460   15.5489 H   0  0  0  0  0  0  0  0  0  0  0  0
   10.7831    5.1711   14.4803 H   0  0  0  0  0  0  0  0  0  0  0  0
    8.0773    9.0798   17.6968 H   0  0  0  0  0  0  0  0  0  0  0  0
    5.7522    7.9443   17.4882 H   0  0  0  0  0  0  0  0  0  0  0  0
    5.8538    7.9721   15.8665 H   0  0  0  0  0  0  0  0  0  0  0  0
    9.4791    9.0535   16.1205 H   0  0  0  0  0  0  0  0  0  0  0  0
    7.9123    9.3667   16.7162 H   0  0  0  0  0  0  0  0  0  0  0  0
    5.1775    4.4279   16.3587 H   0  0  0  0  0  0  0  0  0  0  0  0
    4.7999    6.0021   16.8945 H   0  0  0  0  0  0  0  0  0  0  0  0
    6.4690    9.2599   15.0098 H   0  0  0  0  0  0  0  0  0  0  0  0
  4  5  4  0
  5  6  4  0
  2  8  1  0
  2  9  1  0
  3 10  4  0
  6 10  4  0
  3 11  4  0
  4 11  4  0
 11 12  1  0
 13 14  1  0
 14 15  1  0
  1 15  4  0
  1 17  4  0
  7 18  1  0
 18 19  1  0
 18 20  1  0
 15 21  4  0
 16 21  4  0
 16 22  1  0
 16 23  4  0
 17 23  4  0
 17 24  1  0
  6 25  1  0
  7 25  1  0
 19 25  1  0
  1 26  1  0
  8 26  1  0
  9 27  1  0
 10 27  1  0
 20 28  2  0
 20 29  1  0
  2 30  1  0
  2 31  1  0
  3 32  1  0
  4 33  1  0
  5 34  1  0
  7 35  1  0
  7 36  1  0
  8 37  1  0
  8 38  1  0
  9 39  1  0
  9 40  1  0
 12 41  1  0
 12 42  1  0
 12 43  1  0
 13 44  1  0
 13 45  1  0
 13 46  1  0
 14 47  1  0
 14 48  1  0
 18 49  1  6
 19 50  1  0
 19 51  1  0
 22 52  1  0
 22 53  1  0
 24 54  1  0
 24 55  1  0
 29 56  1  0
M  END
