1R1H_BIR_A_2001
     RDKit          3D

 29 30  0  0  0  0  0  0  0  0999 V2000
   27.6713   35.2687   39.0125 C   0  0  0  0  0  0  0  0  0  0  0  0
   28.0737   36.2310   37.9431 C   0  0  2  0  0  0  0  0  0  0  0  0
   29.0409   37.1719   38.4870 N   0  0  0  0  0  0  0  0  0  0  0  0
   26.6419   37.1249   37.2691 P   0  0  1  0  0  0  0  0  0  0  0  0
   26.1086   38.1113   38.2790 O   0  0  0  0  0  0  0  0  0  0  0  0
   27.1694   38.0143   35.9309 O   0  0  0  0  0  0  0  0  0  0  0  0
   25.3317   35.9583   36.8090 C   0  0  0  0  0  0  0  0  0  0  0  0
   24.0368   36.6942   36.5396 C   0  0  2  0  0  0  0  0  0  0  0  0
   23.2024   36.8929   37.7255 C   0  0  0  0  0  0  0  0  0  0  0  0
   22.6198   35.9660   38.3587 O   0  0  0  0  0  0  0  0  0  0  0  0
   23.0235   38.2343   38.2172 N   0  0  0  0  0  0  0  0  0  0  0  0
   22.1881   38.4389   39.3728 C   0  0  1  0  0  0  0  0  0  0  0  0
   22.7541   39.6184   40.1761 C   0  0  0  0  0  0  0  0  0  0  0  0
   20.7997   38.7580   39.0267 C   0  0  0  0  0  0  0  0  0  0  0  0
   19.8283   38.6424   40.0115 O   0  0  0  0  0  0  0  0  0  0  0  0
   20.4118   39.1358   37.8857 O   0  0  0  0  0  0  0  0  0  0  0  0
   23.2999   36.0746   35.3835 C   0  0  0  0  0  0  0  0  0  0  0  0
   22.4629   37.0475   34.6523 C   0  0  0  0  0  0  0  0  0  0  0  0
   22.2663   37.0129   33.2856 C   0  0  0  0  0  0  0  0  0  0  0  0
   21.4681   37.9568   32.6596 C   0  0  0  0  0  0  0  0  0  0  0  0
   20.8678   38.9389   33.4236 C   0  0  0  0  0  0  0  0  0  0  0  0
   21.0494   38.9950   34.7959 C   0  0  0  0  0  0  0  0  0  0  0  0
   21.8484   38.0482   35.4141 C   0  0  0  0  0  0  0  0  0  0  0  0
   20.0091   39.9723   32.8292 C   0  0  0  0  0  0  0  0  0  0  0  0
   19.3337   40.8716   33.6238 C   0  0  0  0  0  0  0  0  0  0  0  0
   18.5183   41.8545   33.0870 C   0  0  0  0  0  0  0  0  0  0  0  0
   18.3691   41.9470   31.7211 C   0  0  0  0  0  0  0  0  0  0  0  0
   19.0417   41.0523   30.9423 C   0  0  0  0  0  0  0  0  0  0  0  0
   19.8664   40.0567   31.4636 C   0  0  0  0  0  0  0  0  0  0  0  0
  2  1  1  1
  2  3  1  0
  2  4  1  0
  4  5  2  0
  4  6  1  6
  4  7  1  0
  8  7  1  1
  8  9  1  0
  9 10  2  0
  9 11  1  0
 11 12  1  0
 12 13  1  6
 12 14  1  0
 14 15  1  0
 14 16  2  0
  8 17  1  0
 17 18  1  0
 18 19  2  0
 19 20  1  0
 20 21  2  0
 21 22  1  0
 18 23  1  0
 22 23  2  0
 21 24  1  0
 24 25  2  0
 25 26  1  0
 26 27  2  0
 27 28  1  0
 24 29  1  0
 28 29  2  0
M  END
$$$$
