1R1H_BIR_A_2001
     RDKit          3D

 29 30  0  0  0  0  0  0  0  0999 V2000
   25.0981   40.8351   29.1355 C   0  0  0  0  0  0  0  0  0  0  0  0
   26.1935   41.1948   30.0853 C   0  0  2  0  0  0  0  0  0  0  0  0
   27.4726   40.8184   29.5032 N   0  0  0  0  0  0  0  0  0  0  0  0
   25.9778   40.3858   31.6985 P   0  0  1  0  0  0  0  0  0  0  0  0
   26.2813   38.9110   31.5974 O   0  0  0  0  0  0  0  0  0  0  0  0
   27.1026   41.0562   32.7688 O   0  0  0  0  0  0  0  0  0  0  0  0
   24.2813   40.6173   32.2963 C   0  0  0  0  0  0  0  0  0  0  0  0
   24.0542   39.8270   33.5670 C   0  0  2  0  0  0  0  0  0  0  0  0
   24.0430   38.3759   33.3764 C   0  0  0  0  0  0  0  0  0  0  0  0
   23.4074   37.7753   32.4628 O   0  0  0  0  0  0  0  0  0  0  0  0
   24.8055   37.5620   34.2870 N   0  0  0  0  0  0  0  0  0  0  0  0
   24.7146   36.1289   34.1716 C   0  0  1  0  0  0  0  0  0  0  0  0
   26.0232   35.5178   34.6925 C   0  0  0  0  0  0  0  0  0  0  0  0
   23.6126   35.5600   34.9533 C   0  0  0  0  0  0  0  0  0  0  0  0
   23.0710   34.3474   34.5494 O   0  0  0  0  0  0  0  0  0  0  0  0
   23.1093   36.0944   35.9811 O   0  0  0  0  0  0  0  0  0  0  0  0
   22.8537   40.3445   34.3116 C   0  0  0  0  0  0  0  0  0  0  0  0
   23.1750   40.7676   35.6898 C   0  0  0  0  0  0  0  0  0  0  0  0
   24.3838   40.5108   36.3068 C   0  0  0  0  0  0  0  0  0  0  0  0
   24.6224   40.9354   37.6040 C   0  0  0  0  0  0  0  0  0  0  0  0
   23.6307   41.6227   38.2768 C   0  0  0  0  0  0  0  0  0  0  0  0
   22.4100   41.8926   37.6798 C   0  0  0  0  0  0  0  0  0  0  0  0
   22.1791   41.4650   36.3833 C   0  0  0  0  0  0  0  0  0  0  0  0
   23.8122   42.1031   39.6533 C   0  0  0  0  0  0  0  0  0  0  0  0
   22.8080   42.7887   40.2998 C   0  0  0  0  0  0  0  0  0  0  0  0
   22.9554   43.2515   41.5972 C   0  0  0  0  0  0  0  0  0  0  0  0
   24.1345   43.0271   42.2723 C   0  0  0  0  0  0  0  0  0  0  0  0
   25.1231   42.3475   41.6242 C   0  0  0  0  0  0  0  0  0  0  0  0
   24.9937   41.8740   40.3195 C   0  0  0  0  0  0  0  0  0  0  0  0
  2  1  1  6
  2  3  1  0
  2  4  1  0
  4  5  2  0
  4  6  1  1
  4  7  1  0
  8  7  1  6
  8  9  1  0
  9 10  2  0
  9 11  1  0
 11 12  1  0
 12 13  1  1
 12 14  1  0
 14 15  1  0
 14 16  2  0
  8 17  1  0
 17 18  1  0
 18 19  2  0
 19 20  1  0
 20 21  2  0
 21 22  1  0
 18 23  1  0
 22 23  2  0
 21 24  1  0
 24 25  2  0
 25 26  1  0
 26 27  2  0
 27 28  1  0
 24 29  1  0
 28 29  2  0
M  END
$$$$
