1R1H_BIR_A_2001
     RDKit          3D

 29 30  0  0  0  0  0  0  0  0999 V2000
   31.5266   41.7561   37.6073 C   0  0  0  0  0  0  0  0  0  0  0  0
   31.5498   41.2693   39.0194 C   0  0  2  0  0  0  0  0  0  0  0  0
   32.4802   40.1557   39.1251 N   0  0  0  0  0  0  0  0  0  0  0  0
   29.8984   40.7604   39.5827 P   0  0  1  0  0  0  0  0  0  0  0  0
   29.3635   39.6444   38.7191 O   0  0  0  0  0  0  0  0  0  0  0  0
   30.0518   40.1493   41.1521 O   0  0  0  0  0  0  0  0  0  0  0  0
   28.7557   42.1679   39.5332 C   0  0  0  0  0  0  0  0  0  0  0  0
   27.3756   41.7469   39.9901 C   0  0  2  0  0  0  0  0  0  0  0  0
   26.6905   40.8385   39.0695 C   0  0  0  0  0  0  0  0  0  0  0  0
   26.4955   41.0708   37.8417 O   0  0  0  0  0  0  0  0  0  0  0  0
   26.1982   39.5876   39.5851 N   0  0  0  0  0  0  0  0  0  0  0  0
   25.4406   38.7314   38.7086 C   0  0  1  0  0  0  0  0  0  0  0  0
   25.7336   37.2722   39.0857 C   0  0  0  0  0  0  0  0  0  0  0  0
   23.9933   38.9392   38.8149 C   0  0  0  0  0  0  0  0  0  0  0  0
   23.1803   38.4735   37.7908 O   0  0  0  0  0  0  0  0  0  0  0  0
   23.4190   39.5176   39.7797 O   0  0  0  0  0  0  0  0  0  0  0  0
   26.5514   42.9448   40.3765 C   0  0  0  0  0  0  0  0  0  0  0  0
   25.0993   42.6779   40.3305 C   0  0  0  0  0  0  0  0  0  0  0  0
   24.3810   42.1679   41.3943 C   0  0  0  0  0  0  0  0  0  0  0  0
   23.0185   41.9398   41.2861 C   0  0  0  0  0  0  0  0  0  0  0  0
   22.3835   42.2305   40.0941 C   0  0  0  0  0  0  0  0  0  0  0  0
   23.0817   42.7428   39.0127 C   0  0  0  0  0  0  0  0  0  0  0  0
   24.4430   42.9679   39.1287 C   0  0  0  0  0  0  0  0  0  0  0  0
   20.9425   42.0146   39.9062 C   0  0  0  0  0  0  0  0  0  0  0  0
   20.0928   41.9420   40.9874 C   0  0  0  0  0  0  0  0  0  0  0  0
   18.7308   41.7390   40.8358 C   0  0  0  0  0  0  0  0  0  0  0  0
   18.1970   41.6041   39.5735 C   0  0  0  0  0  0  0  0  0  0  0  0
   19.0460   41.6773   38.5090 C   0  0  0  0  0  0  0  0  0  0  0  0
   20.4186   41.8810   38.6412 C   0  0  0  0  0  0  0  0  0  0  0  0
  2  1  1  6
  2  3  1  0
  2  4  1  0
  4  5  2  0
  4  6  1  1
  4  7  1  0
  8  7  1  6
  8  9  1  0
  9 10  2  0
  9 11  1  0
 11 12  1  0
 12 13  1  1
 12 14  1  0
 14 15  1  0
 14 16  2  0
  8 17  1  0
 17 18  1  0
 18 19  2  0
 19 20  1  0
 20 21  2  0
 21 22  1  0
 18 23  1  0
 22 23  2  0
 21 24  1  0
 24 25  2  0
 25 26  1  0
 26 27  2  0
 27 28  1  0
 24 29  1  0
 28 29  2  0
M  END
$$$$
