1R1H_BIR_A_2001
     RDKit          3D

 29 30  0  0  0  0  0  0  0  0999 V2000
   16.1692   41.1975   29.8420 C   0  0  0  0  0  0  0  0  0  0  0  0
   15.5827   41.4780   31.1869 C   0  0  2  0  0  0  0  0  0  0  0  0
   16.3513   42.5312   31.8326 N   0  0  0  0  0  0  0  0  0  0  0  0
   15.5564   39.9917   32.2327 P   0  0  1  0  0  0  0  0  0  0  0  0
   16.9406   39.4027   32.3528 O   0  0  0  0  0  0  0  0  0  0  0  0
   15.0749   40.4590   33.7851 O   0  0  0  0  0  0  0  0  0  0  0  0
   14.4276   38.7539   31.5381 C   0  0  0  0  0  0  0  0  0  0  0  0
   14.4052   37.5120   32.4029 C   0  0  2  0  0  0  0  0  0  0  0  0
   15.6667   36.7702   32.4195 C   0  0  0  0  0  0  0  0  0  0  0  0
   16.3748   36.5324   31.3990 O   0  0  0  0  0  0  0  0  0  0  0  0
   16.1478   36.2699   33.6810 N   0  0  0  0  0  0  0  0  0  0  0  0
   17.3212   35.4343   33.6886 C   0  0  1  0  0  0  0  0  0  0  0  0
   18.0949   35.6987   34.9880 C   0  0  0  0  0  0  0  0  0  0  0  0
   17.0061   34.0035   33.6384 C   0  0  0  0  0  0  0  0  0  0  0  0
   17.9267   33.1425   33.0571 O   0  0  0  0  0  0  0  0  0  0  0  0
   15.9466   33.4844   34.0892 O   0  0  0  0  0  0  0  0  0  0  0  0
   13.2099   36.6570   32.0805 C   0  0  0  0  0  0  0  0  0  0  0  0
   12.3415   36.4240   33.2525 C   0  0  0  0  0  0  0  0  0  0  0  0
   12.1929   35.1935   33.8621 C   0  0  0  0  0  0  0  0  0  0  0  0
   11.3611   35.0414   34.9598 C   0  0  0  0  0  0  0  0  0  0  0  0
   10.6781   36.1421   35.4400 C   0  0  0  0  0  0  0  0  0  0  0  0
   10.8103   37.3867   34.8462 C   0  0  0  0  0  0  0  0  0  0  0  0
   11.6434   37.5306   33.7497 C   0  0  0  0  0  0  0  0  0  0  0  0
    9.7791   36.0565   36.5989 C   0  0  0  0  0  0  0  0  0  0  0  0
    9.4652   34.8388   37.1602 C   0  0  0  0  0  0  0  0  0  0  0  0
    8.6202   34.7325   38.2528 C   0  0  0  0  0  0  0  0  0  0  0  0
    8.0707   35.8686   38.8041 C   0  0  0  0  0  0  0  0  0  0  0  0
    8.3872   37.0697   38.2416 C   0  0  0  0  0  0  0  0  0  0  0  0
    9.2352   37.1971   37.1426 C   0  0  0  0  0  0  0  0  0  0  0  0
  2  1  1  6
  2  3  1  0
  2  4  1  0
  4  5  2  0
  4  6  1  1
  4  7  1  0
  8  7  1  6
  8  9  1  0
  9 10  2  0
  9 11  1  0
 11 12  1  0
 12 13  1  1
 12 14  1  0
 14 15  1  0
 14 16  2  0
  8 17  1  0
 17 18  1  0
 18 19  2  0
 19 20  1  0
 20 21  2  0
 21 22  1  0
 18 23  1  0
 22 23  2  0
 21 24  1  0
 24 25  2  0
 25 26  1  0
 26 27  2  0
 27 28  1  0
 24 29  1  0
 28 29  2  0
M  END
$$$$
