1R1H_BIR_A_2001
     RDKit          3D

 29 30  0  0  0  0  0  0  0  0999 V2000
    4.3236   31.5186   21.5320 C   0  0  0  0  0  0  0  0  0  0  0  0
    3.5932   31.3830   22.8281 C   0  0  2  0  0  0  0  0  0  0  0  0
    2.4192   32.2421   22.8064 N   0  0  0  0  0  0  0  0  0  0  0  0
    4.6516   31.8054   24.2440 P   0  0  1  0  0  0  0  0  0  0  0  0
    5.3337   33.1327   24.0195 O   0  0  0  0  0  0  0  0  0  0  0  0
    3.6572   31.9767   25.6012 O   0  0  0  0  0  0  0  0  0  0  0  0
    5.9009   30.5163   24.5019 C   0  0  0  0  0  0  0  0  0  0  0  0
    6.9103   30.9561   25.5404 C   0  0  2  0  0  0  0  0  0  0  0  0
    8.1579   31.4777   24.9805 C   0  0  0  0  0  0  0  0  0  0  0  0
    8.9448   30.8198   24.2407 O   0  0  0  0  0  0  0  0  0  0  0  0
    8.5280   32.8353   25.2857 N   0  0  0  0  0  0  0  0  0  0  0  0
    9.7643   33.3487   24.7536 C   0  0  1  0  0  0  0  0  0  0  0  0
    9.5428   34.8104   24.3396 C   0  0  0  0  0  0  0  0  0  0  0  0
   10.8619   33.3199   25.7249 C   0  0  0  0  0  0  0  0  0  0  0  0
   12.1110   32.8884   25.3004 O   0  0  0  0  0  0  0  0  0  0  0  0
   10.7590   33.6619   26.9364 O   0  0  0  0  0  0  0  0  0  0  0  0
    7.1181   29.8819   26.5731 C   0  0  0  0  0  0  0  0  0  0  0  0
    5.9447   29.6992   27.4514 C   0  0  0  0  0  0  0  0  0  0  0  0
    5.1251   30.7338   27.8584 C   0  0  0  0  0  0  0  0  0  0  0  0
    4.0384   30.4952   28.6844 C   0  0  0  0  0  0  0  0  0  0  0  0
    3.7832   29.2021   29.0984 C   0  0  0  0  0  0  0  0  0  0  0  0
    4.5904   28.1474   28.7040 C   0  0  0  0  0  0  0  0  0  0  0  0
    5.6743   28.3940   27.8785 C   0  0  0  0  0  0  0  0  0  0  0  0
    2.6502   28.8738   29.9741 C   0  0  0  0  0  0  0  0  0  0  0  0
    2.4864   27.5990   30.4685 C   0  0  0  0  0  0  0  0  0  0  0  0
    1.4264   27.2651   31.2955 C   0  0  0  0  0  0  0  0  0  0  0  0
    0.5019   28.2253   31.6418 C   0  0  0  0  0  0  0  0  0  0  0  0
    0.6722   29.4847   31.1476 C   0  0  0  0  0  0  0  0  0  0  0  0
    1.7318   29.8398   30.3145 C   0  0  0  0  0  0  0  0  0  0  0  0
  2  1  1  6
  2  3  1  0
  2  4  1  0
  4  5  2  0
  4  6  1  1
  4  7  1  0
  8  7  1  6
  8  9  1  0
  9 10  2  0
  9 11  1  0
 11 12  1  0
 12 13  1  1
 12 14  1  0
 14 15  1  0
 14 16  2  0
  8 17  1  0
 17 18  1  0
 18 19  2  0
 19 20  1  0
 20 21  2  0
 21 22  1  0
 18 23  1  0
 22 23  2  0
 21 24  1  0
 24 25  2  0
 25 26  1  0
 26 27  2  0
 27 28  1  0
 24 29  1  0
 28 29  2  0
M  END
$$$$
