1R1H_BIR_A_2001
     RDKit          3D

 29 30  0  0  0  0  0  0  0  0999 V2000
   21.9323   37.0152   35.0487 C   0  0  0  0  0  0  0  0  0  0  0  0
   23.2510   36.6388   35.6410 C   0  0  2  0  0  0  0  0  0  0  0  0
   24.0803   36.0307   34.6119 N   0  0  0  0  0  0  0  0  0  0  0  0
   23.0577   35.4988   37.0434 P   0  0  1  0  0  0  0  0  0  0  0  0
   22.5291   34.1654   36.5745 O   0  0  0  0  0  0  0  0  0  0  0  0
   24.5904   35.2255   37.7038 O   0  0  0  0  0  0  0  0  0  0  0  0
   21.9265   36.2021   38.2742 C   0  0  0  0  0  0  0  0  0  0  0  0
   21.6181   35.1860   39.3528 C   0  0  2  0  0  0  0  0  0  0  0  0
   20.1920   35.0382   39.6469 C   0  0  0  0  0  0  0  0  0  0  0  0
   19.5069   35.8621   40.3187 O   0  0  0  0  0  0  0  0  0  0  0  0
   19.5077   33.8766   39.1415 N   0  0  0  0  0  0  0  0  0  0  0  0
   18.1046   33.7236   39.4299 C   0  0  1  0  0  0  0  0  0  0  0  0
   17.4359   33.0386   38.2296 C   0  0  0  0  0  0  0  0  0  0  0  0
   17.8499   32.8991   40.6150 C   0  0  0  0  0  0  0  0  0  0  0  0
   16.6618   33.0850   41.3083 O   0  0  0  0  0  0  0  0  0  0  0  0
   18.6384   32.0194   41.0618 O   0  0  0  0  0  0  0  0  0  0  0  0
   22.4614   35.4301   40.5746 C   0  0  0  0  0  0  0  0  0  0  0  0
   22.0133   34.6464   41.7437 C   0  0  0  0  0  0  0  0  0  0  0  0
   22.0549   35.1169   43.0417 C   0  0  0  0  0  0  0  0  0  0  0  0
   21.6190   34.3301   44.0958 C   0  0  0  0  0  0  0  0  0  0  0  0
   21.1394   33.0619   43.8311 C   0  0  0  0  0  0  0  0  0  0  0  0
   21.0874   32.5672   42.5381 C   0  0  0  0  0  0  0  0  0  0  0  0
   21.5248   33.3594   41.4902 C   0  0  0  0  0  0  0  0  0  0  0  0
   20.6607   32.1718   44.8975 C   0  0  0  0  0  0  0  0  0  0  0  0
   19.9881   31.0083   44.5969 C   0  0  0  0  0  0  0  0  0  0  0  0
   19.5271   30.1532   45.5845 C   0  0  0  0  0  0  0  0  0  0  0  0
   19.7403   30.4625   46.9095 C   0  0  0  0  0  0  0  0  0  0  0  0
   20.4072   31.6164   47.1974 C   0  0  0  0  0  0  0  0  0  0  0  0
   20.8785   32.4893   46.2181 C   0  0  0  0  0  0  0  0  0  0  0  0
  2  1  1  6
  2  3  1  0
  2  4  1  0
  4  5  2  0
  4  6  1  1
  4  7  1  0
  8  7  1  6
  8  9  1  0
  9 10  2  0
  9 11  1  0
 11 12  1  0
 12 13  1  6
 12 14  1  0
 14 15  1  0
 14 16  2  0
  8 17  1  0
 17 18  1  0
 18 19  2  0
 19 20  1  0
 20 21  2  0
 21 22  1  0
 18 23  1  0
 22 23  2  0
 21 24  1  0
 24 25  2  0
 25 26  1  0
 26 27  2  0
 27 28  1  0
 24 29  1  0
 28 29  2  0
M  END
$$$$
