8C7Y_TXV_B_803
     RDKit          3D

 34 37  0  0  0  0  0  0  0  0999 V2000
   -1.4983  103.2157   17.9308 N   0  0  0  0  0  0  0  0  0  0  0  0
    0.2702  104.1293   20.8910 C   0  0  0  0  0  0  0  0  0  0  0  0
   -0.9044  103.8914   20.1888 C   0  0  0  0  0  0  0  0  0  0  0  0
   -0.2152  105.4409   10.8192 N   0  0  0  0  0  0  0  0  0  0  0  0
   -2.0170  103.3883   20.8677 C   0  0  0  0  0  0  0  0  0  0  0  0
    2.2701  103.3824   14.1053 O   0  0  0  0  0  0  0  0  0  0  0  0
   -3.1952  102.5750   22.9826 C   0  0  1  0  0  0  0  0  0  0  0  0
   -0.7645  103.3392   22.9103 C   0  0  0  0  0  0  0  0  0  0  0  0
    0.3391  103.8429   22.2436 C   0  0  0  0  0  0  0  0  0  0  0  0
    1.5617  105.7844    9.2324 N   0  0  0  0  0  0  0  0  0  0  0  0
   -1.9627  103.1139   22.2366 C   0  0  0  0  0  0  0  0  0  0  0  0
   -4.4198  102.9353   22.2485 C   0  0  0  0  0  0  0  0  0  0  0  0
   -3.1713  101.0424   23.1023 C   0  0  0  0  0  0  0  0  0  0  0  0
   -1.0550  102.1518   12.5560 F   0  0  0  0  0  0  0  0  0  0  0  0
   -1.1238  102.4154   13.8717 C   0  0  0  0  0  0  0  0  0  0  0  0
   -2.2073  101.9504   14.5676 C   0  0  0  0  0  0  0  0  0  0  0  0
   -2.2782  102.1730   15.9253 C   0  0  0  0  0  0  0  0  0  0  0  0
   -0.0649  103.1059   14.4550 C   0  0  0  0  0  0  0  0  0  0  0  0
   -0.1793  103.3462   15.8190 C   0  0  0  0  0  0  0  0  0  0  0  0
    0.8552  103.9264   16.4529 F   0  0  0  0  0  0  0  0  0  0  0  0
   -1.2947  102.9287   16.5459 C   0  0  0  0  0  0  0  0  0  0  0  0
   -1.0231  104.1871   18.7206 C   0  0  0  0  0  0  0  0  0  0  0  0
   -0.9621  105.3314   18.3251 O   0  0  0  0  0  0  0  0  0  0  0  0
   -5.3890  103.1794   21.7306 N   0  0  0  0  0  0  0  0  0  0  0  0
   -3.3313  103.1814   24.3993 C   0  0  0  0  0  0  0  0  0  0  0  0
    1.1225  103.5691   13.6713 C   0  0  0  0  0  0  0  0  0  0  0  0
    0.8703  104.2845   12.4110 C   0  0  0  0  0  0  0  0  0  0  0  0
    1.7926  104.5987   11.3550 C   0  0  0  0  0  0  0  0  0  0  0  0
    3.1448  104.3578   11.0994 C   0  0  0  0  0  0  0  0  0  0  0  0
    3.6488  104.8359    9.9023 C   0  0  0  0  0  0  0  0  0  0  0  0
    5.3321  104.6057    9.5409 Cl  0  0  0  0  0  0  0  0  0  0  0  0
    2.8482  105.5230    9.0047 C   0  0  0  0  0  0  0  0  0  0  0  0
    1.0764  105.3129   10.3837 C   0  0  0  0  0  0  0  0  0  0  0  0
   -0.3326  104.8337   12.0392 C   0  0  0  0  0  0  0  0  0  0  0  0
  2  3  2  0
  3  5  1  0
  2  9  1  0
  8  9  2  0
  5 11  2  0
  7 11  1  0
  8 11  1  0
  7 12  1  0
  7 13  1  1
 14 15  1  0
 15 16  2  0
 16 17  1  0
 15 18  1  0
 18 19  2  0
 19 20  1  0
 19 21  1  0
  1 21  1  0
 17 21  2  0
  1 22  1  0
  3 22  1  0
 22 23  2  0
 12 24  3  0
  7 25  1  0
  6 26  2  0
 18 26  1  0
 26 27  1  0
 27 28  1  0
 28 29  2  0
 29 30  1  0
 30 31  1  0
 30 32  2  0
 10 32  1  0
 10 33  2  0
 28 33  1  0
  4 33  1  0
  4 34  1  0
 27 34  2  0
M  END
