1J3J_CP6_A_609
     RDKit          3D

 30 31  0  0  0  0  0  0  0  0999 V2000
   27.1866    6.0807   18.3499 N   0  0  0  0  0  0  0  0  0  0  0  0
   27.2748    5.5647   19.6011 C   0  0  0  0  0  0  0  0  0  0  0  0
   27.7325    7.2849   18.0383 C   0  0  0  0  0  0  0  0  0  0  0  0
   28.4096    8.0213   19.0336 C   0  0  0  0  0  0  0  0  0  0  0  0
   28.4990    7.4606   20.3286 C   0  0  0  0  0  0  0  0  0  0  0  0
   27.9210    6.2548   20.5736 N   0  0  0  0  0  0  0  0  0  0  0  0
   28.9968    9.3421   18.7265 C   0  0  0  0  0  0  0  0  0  0  0  0
   28.1848   10.4858   18.7032 C   0  0  0  0  0  0  0  0  0  0  0  0
   28.7389   11.7343   18.4051 C   0  0  0  0  0  0  0  0  0  0  0  0
   30.1049   11.8459   18.1233 C   0  0  0  0  0  0  0  0  0  0  0  0
   30.9165   10.7061   18.1378 C   0  0  0  0  0  0  0  0  0  0  0  0
   30.3646    9.4565   18.4356 C   0  0  0  0  0  0  0  0  0  0  0  0
   27.6131    7.7688   16.6960 N   0  0  0  0  0  0  0  0  0  0  0  0
   26.6859    4.3001   19.8947 N   0  0  0  0  0  0  0  0  0  0  0  0
   29.1514    8.1810   21.4812 C   0  0  1  0  0  0  0  0  0  0  0  0
   28.1027    8.7310   22.4421 C   0  0  1  0  0  0  0  0  0  0  0  0
   30.7989   13.4128   17.7495 Cl  0  0  0  0  0  0  0  0  0  0  0  0
   27.1261   10.4092   18.9190 H   0  0  0  0  0  0  0  0  0  0  0  0
   28.1067   12.6128   18.3927 H   0  0  0  0  0  0  0  0  0  0  0  0
   31.9734   10.7872   17.9177 H   0  0  0  0  0  0  0  0  0  0  0  0
   31.0003    8.5797   18.4419 H   0  0  0  0  0  0  0  0  0  0  0  0
   28.0311    8.6749   16.3907 H   0  0  0  0  0  0  0  0  0  0  0  0
   27.1097    7.1977   15.9812 H   0  0  0  0  0  0  0  0  0  0  0  0
   26.7005    3.9235   20.8685 H   0  0  0  0  0  0  0  0  0  0  0  0
   26.2345    3.7389   19.1387 H   0  0  0  0  0  0  0  0  0  0  0  0
   29.8063    7.4729   22.0338 H   0  0  0  0  0  0  0  0  0  0  0  0
   29.8009    9.0065   21.1237 H   0  0  0  0  0  0  0  0  0  0  0  0
   27.7598    7.9386   23.1398 H   0  0  0  0  0  0  0  0  0  0  0  0
   28.5225    9.5768   23.0276 H   0  0  0  0  0  0  0  0  0  0  0  0
   27.2271    9.0976   21.8661 H   0  0  0  0  0  0  0  0  0  0  0  0
  1  2  2  0
  1  3  1  0
  3  4  2  0
  4  5  1  0
  2  6  1  0
  5  6  2  0
  4  7  1  0
  7  8  2  0
  8  9  1  0
  9 10  2  0
 10 11  1  0
  7 12  1  0
 11 12  2  0
  3 13  1  0
  2 14  1  0
  5 15  1  0
 15 16  1  0
 10 17  1  0
  8 18  1  0
  9 19  1  0
 11 20  1  0
 12 21  1  0
 13 22  1  0
 13 23  1  0
 14 24  1  0
 14 25  1  0
 15 26  1  1
 15 27  1  0
 16 28  1  1
 16 29  1  0
 16 30  1  0
M  END
