7M3H_YPV_A_501
     RDKit          3D

 43 44  0  0  0  0  0  0  0  0999 V2000
    1.8947    7.6940   17.4231 C   0  0  0  0  0  0  0  0  0  0  0  0
    2.9496    8.2884   16.7727 C   0  0  0  0  0  0  0  0  0  0  0  0
    4.0592    8.7758   17.4583 C   0  0  0  0  0  0  0  0  0  0  0  0
   -2.2706    8.4309   16.6615 C   0  0  0  0  0  0  0  0  0  0  0  0
   -3.8342   10.3944   16.2177 C   0  0  0  0  0  0  0  0  0  0  0  0
   -3.4058    8.9441   16.0687 C   0  0  0  0  0  0  0  0  0  0  0  0
   -4.1686    8.0635   15.3679 C   0  0  0  0  0  0  0  0  0  0  0  0
   -3.8820    6.7447   15.2259 C   0  0  0  0  0  0  0  0  0  0  0  0
   -2.7368    6.2870   15.8381 C   0  0  0  0  0  0  0  0  0  0  0  0
   -1.8618    7.1037   16.5694 C   0  0  0  0  0  0  0  0  0  0  0  0
    4.1824    8.6666   18.8235 C   0  0  0  0  0  0  0  0  0  0  0  0
    5.3734    9.2205   19.5334 C   0  0  0  0  0  0  0  0  0  0  0  0
    6.2762   10.0636   18.6486 C   0  0  0  0  0  0  0  0  0  0  0  0
    6.8189    9.4154   17.3419 C   0  0  0  0  0  0  0  0  0  0  0  0
    5.6749    8.9252   16.3409 C   0  0  0  0  0  0  0  0  0  0  0  0
    3.1182    8.0660   19.5021 C   0  0  0  0  0  0  0  0  0  0  0  0
    2.0030    7.5779   18.7971 C   0  0  0  0  0  0  0  0  0  0  0  0
    0.7606    7.2694   16.7479 N   0  0  0  0  0  0  0  0  0  0  0  0
   -3.9866   11.1190   15.1660 O   0  0  0  0  0  0  0  0  0  0  0  0
   -5.3359    8.5312   14.7530 O   0  0  0  0  0  0  0  0  0  0  0  0
   -0.3206    5.0792   16.8945 O   0  0  0  0  0  0  0  0  0  0  0  0
   -0.4802    6.6600   18.7420 O   0  0  0  0  0  0  0  0  0  0  0  0
   -3.9587   10.8504   17.3839 O   0  0  0  0  0  0  0  0  0  0  0  0
   -0.4780    6.4403   17.2975 S   0  0  2  0  0  6  0  0  0  0  0  0
    2.9182    8.3762   15.7449 H   0  0  0  0  0  0  0  0  0  0  0  0
    4.8141    9.2340   16.9242 H   0  0  0  0  0  0  0  0  0  0  0  0
   -1.6832    9.0765   17.2120 H   0  0  0  0  0  0  0  0  0  0  0  0
   -4.4937    6.1143   14.6844 H   0  0  0  0  0  0  0  0  0  0  0  0
   -2.5088    5.2840   15.7539 H   0  0  0  0  0  0  0  0  0  0  0  0
    5.0304    9.8296   20.3435 H   0  0  0  0  0  0  0  0  0  0  0  0
    5.9542    8.3859   19.8666 H   0  0  0  0  0  0  0  0  0  0  0  0
    5.7237   10.9356   18.3670 H   0  0  0  0  0  0  0  0  0  0  0  0
    7.1473   10.2423   19.2436 H   0  0  0  0  0  0  0  0  0  0  0  0
    7.4248   10.1366   16.8342 H   0  0  0  0  0  0  0  0  0  0  0  0
    7.3719    8.5465   17.6319 H   0  0  0  0  0  0  0  0  0  0  0  0
    5.0941    9.7660   16.0238 H   0  0  0  0  0  0  0  0  0  0  0  0
    6.1229    8.4591   15.4882 H   0  0  0  0  0  0  0  0  0  0  0  0
    5.0415    8.2220   16.8402 H   0  0  0  0  0  0  0  0  0  0  0  0
    3.1508    7.9798   20.5300 H   0  0  0  0  0  0  0  0  0  0  0  0
    1.2418    7.1190   19.3214 H   0  0  0  0  0  0  0  0  0  0  0  0
    0.7167    7.5159   15.7957 H   0  0  0  0  0  0  0  0  0  0  0  0
   -3.8845   10.7383   14.3158 H   0  0  0  0  0  0  0  0  0  0  0  0
   -5.5735    9.4347   14.8246 H   0  0  0  0  0  0  0  0  0  0  0  0
  1  2  4  0
  2  3  4  0
  4  6  4  0
  5  6  1  0
  6  7  4  0
  7  8  4  0
  8  9  4  0
  4 10  4  0
  9 10  4  0
  3 11  4  0
 11 12  1  0
 12 13  1  0
 13 14  1  0
 14 15  1  0
 11 16  4  0
 16 17  4  0
  1 17  4  0
  1 18  1  0
  5 19  1  0
  7 20  1  0
  5 23  2  0
 21 24  2  0
 22 24  2  0
 24 18  1  1
 10 24  1  0
  2 25  1  0
  3 26  1  0
  4 27  1  0
  8 28  1  0
  9 29  1  0
 12 30  1  0
 12 31  1  0
 13 32  1  0
 13 33  1  0
 14 34  1  0
 14 35  1  0
 15 36  1  0
 15 37  1  0
 15 38  1  0
 16 39  1  0
 17 40  1  0
 18 41  1  0
 19 42  1  0
 20 43  1  0
M  END
