6YSP_PAL_C_401
     RDKit          3D

 16 15  0  0  0  0  0  0  0  0999 V2000
   19.4430   28.6630  -35.8670 P   0  0  0  0  0  0  0  0  0  0  0  0
   19.3170   29.1030  -37.3100 O   0  0  0  0  0  0  0  0  0  0  0  0
   19.1600   29.7630  -34.8750 O   0  0  0  0  0  0  0  0  0  0  0  0
   18.6290   27.4190  -35.5820 O   0  0  0  0  0  0  0  0  0  0  0  0
   21.1880   28.1460  -35.6210 C   0  0  0  0  0  0  0  0  0  0  0  0
   21.4690   28.1050  -34.1430 C   0  0  0  0  0  0  0  0  0  0  0  0
   21.0840   27.2180  -33.4470 O   0  0  0  0  0  0  0  0  0  0  0  0
   22.1960   29.2190  -33.6890 N   0  0  0  0  0  0  0  0  0  0  0  0
   22.5690   29.3570  -32.2900 C   0  0  2  0  0  0  0  0  0  0  0  0
   21.4090   29.4510  -31.3170 C   0  0  0  0  0  0  0  0  0  0  0  0
   20.2020   29.5280  -31.6710 O   0  0  0  0  0  0  0  0  0  0  0  0
   21.7430   29.3900  -30.1060 O   0  0  0  0  0  0  0  0  0  0  0  0
   23.4880   30.5800  -32.2250 C   0  0  0  0  0  0  0  0  0  0  0  0
   22.8450   31.8960  -32.6270 C   0  0  0  0  0  0  0  0  0  0  0  0
   21.6070   31.9520  -32.8240 O   0  0  0  0  0  0  0  0  0  0  0  0
   23.5810   32.9150  -32.7140 O   0  0  0  0  0  0  0  0  0  0  0  0
  1  2  2  0
  1  3  1  0
  1  4  1  0
  1  5  1  0
  5  6  1  0
  6  7  2  0
  6  8  1  0
  8  9  1  0
  9 10  1  0
 10 11  2  0
 10 12  1  0
  9 13  1  6
 13 14  1  0
 14 15  2  0
 14 16  1  0
M  END
$$$$
