6YQV_8K2_H_308
     RDKit          3D

 14 14  0  0  0  0  0  0  0  0999 V2000
    0.4110    1.1401    0.2131 C   0  0  0  0  0  0  0  0  0  0  0  0
   -1.8849    2.3722   -0.8044 Cl  0  0  0  0  0  0  0  0  0  0  0  0
   -0.7429    1.0686   -0.5549 C   0  0  0  0  0  0  0  0  0  0  0  0
    1.1347   -0.0576    0.2285 C   0  0  0  0  0  0  0  0  0  0  0  0
   -0.8754   -0.4704   -1.2190 S   0  0  0  0  0  0  0  0  0  0  0  0
    0.5388   -1.0594   -0.5252 C   0  0  0  0  0  0  0  0  0  0  0  0
    1.1723   -2.6775   -0.7539 S   0  0  1  0  0  6  0  0  0  0  0  0
    1.1078   -3.4293    0.5458 O   0  0  0  0  0  0  0  0  0  0  0  0
    0.3438   -3.4012   -1.7781 O   0  0  0  0  0  0  0  0  0  0  0  0
    2.8126   -2.5856   -1.2909 N   0  0  0  0  0  0  0  0  0  0  0  0
    0.7218    2.0305    0.7434 H   0  0  0  0  0  0  0  0  0  0  0  0
    2.0630   -0.1856    0.7696 H   0  0  0  0  0  0  0  0  0  0  0  0
    3.1288   -3.5637   -1.4763 H   0  0  0  0  0  0  0  0  0  0  0  0
    2.8048   -2.0914   -2.2114 H   0  0  0  0  0  0  0  0  0  0  0  0
  1  3  4  0
  2  3  1  0
  1  4  4  0
  3  5  4  0
  4  6  4  0
  5  6  4  0
  6  7  1  0
  7  8  2  0
  7  9  2  0
  7 10  1  1
  1 11  1  0
  4 12  1  0
 10 13  1  0
 10 14  1  0
M  END
