8F8E_XJI_A_1401
     RDKit          3D

 29 31  0  0  0  0  0  0  0  0999 V2000
    3.4152  -50.7232  -47.3276 N   0  0  0  0  0  0  0  0  0  0  0  0
    0.8244  -49.7082  -43.0626 C   0  0  0  0  0  0  0  0  0  0  0  0
    2.1390  -50.1136  -42.9701 C   0  0  0  0  0  0  0  0  0  0  0  0
    3.0346  -46.6043  -46.1050 N   0  0  0  0  0  0  0  0  0  0  0  0
    2.9660  -50.0740  -44.0954 C   0  0  0  0  0  0  0  0  0  0  0  0
    2.2179  -42.5742  -45.5218 O   0  0  0  0  0  0  0  0  0  0  0  0
    3.8862  -48.6031  -47.1962 C   0  0  0  0  0  0  0  0  0  0  0  0
    1.2006  -49.2313  -45.3860 C   0  0  0  0  0  0  0  0  0  0  0  0
    0.3858  -49.2750  -44.2777 C   0  0  0  0  0  0  0  0  0  0  0  0
    0.0644  -42.9473  -44.8925 N   0  0  0  0  0  0  0  0  0  0  0  0
    2.5381  -49.6432  -45.3063 C   0  0  0  0  0  0  0  0  0  0  0  0
    3.2774  -49.6157  -46.5469 C   0  0  0  0  0  0  0  0  0  0  0  0
    4.3817  -49.1795  -48.3890 C   0  0  0  0  0  0  0  0  0  0  0  0
    1.3773  -43.4439  -45.2287 C   0  0  0  0  0  0  0  0  0  0  0  0
    1.5845  -44.9017  -45.1862 C   0  0  0  0  0  0  0  0  0  0  0  0
    3.0084  -45.2923  -45.6039 C   0  0  1  0  0  0  0  0  0  0  0  0
    3.8904  -44.9163  -44.5138 C   0  0  0  0  0  0  0  0  0  0  0  0
    4.8213  -43.9035  -44.5162 C   0  0  0  0  0  0  0  0  0  0  0  0
    5.6677  -43.6724  -43.4352 C   0  0  0  0  0  0  0  0  0  0  0  0
    5.6029  -44.4685  -42.2896 C   0  0  0  0  0  0  0  0  0  0  0  0
    6.4235  -44.2437  -41.2245 F   0  0  0  0  0  0  0  0  0  0  0  0
    4.6661  -45.4932  -42.2756 C   0  0  0  0  0  0  0  0  0  0  0  0
    4.5309  -46.5485  -40.8674 Cl  0  0  0  0  0  0  0  0  0  0  0  0
    3.8580  -45.6878  -43.3547 C   0  0  0  0  0  0  0  0  0  0  0  0
    4.0679  -47.1870  -46.9597 C   0  0  0  0  0  0  0  0  0  0  0  0
    4.9926  -46.4744  -47.4205 O   0  0  0  0  0  0  0  0  0  0  0  0
    4.0718  -50.4777  -48.4265 N   0  0  0  0  0  0  0  0  0  0  0  0
   -0.3004  -49.7056  -41.7273 Cl  0  0  0  0  0  0  0  0  0  0  0  0
    0.6887  -48.7634  -46.5721 F   0  0  0  0  0  0  0  0  0  0  0  0
  2  3  2  0
  3  5  1  0
  2  9  1  0
  8  9  2  0
  8 11  1  0
  5 11  2  0
 11 12  1  0
  7 12  1  0
  1 12  2  0
  7 13  2  0
  6 14  2  0
 10 14  1  0
 15 14  1  6
 16 15  1  0
 16  4  1  1
 16 17  1  0
 17 18  2  0
 18 19  1  0
 19 20  2  0
 20 21  1  0
 20 22  1  0
 22 23  1  0
 17 24  1  0
 22 24  2  0
  4 25  1  0
  7 25  1  0
 25 26  2  0
  1 27  1  0
 13 27  1  0
  2 28  1  0
  8 29  1  0
M  END
$$$$
