1R58_AO5_A_501
     RDKit          3D

 23 23  0  0  0  0  0  0  0  0999 V2000
   20.5669   26.5170   18.6384 C   0  0  2  0  0  0  0  0  0  0  0  0
   21.4543   27.5024   19.3800 C   0  0  0  0  0  0  0  0  0  0  0  0
   20.4320   26.8599   17.1814 C   0  0  0  0  0  0  0  0  0  0  0  0
   18.9234   26.5865   19.4017 S   0  0  0  0  0  0  0  0  0  0  0  0
   17.9078   27.8153   18.5870 C   0  0  0  0  0  0  0  0  0  0  0  0
   16.5458   27.9401   19.1782 C   0  0  0  0  0  0  0  0  0  0  0  0
   16.5901   28.4380   20.5792 C   0  0  1  0  0  0  0  0  0  0  0  0
   17.5677   29.4544   20.7800 N   0  0  0  0  0  0  0  0  0  0  0  0
   15.1635   28.9060   20.9198 C   0  0  2  0  0  0  0  0  0  0  0  0
   14.8813   29.9707   20.0296 O   0  0  0  0  0  0  0  0  0  0  0  0
   15.1825   29.4301   22.2962 C   0  0  0  0  0  0  0  0  0  0  0  0
   16.2605   29.3693   22.9401 O   0  0  0  0  0  0  0  0  0  0  0  0
   14.0665   30.0046   22.9549 N   0  0  0  0  0  0  0  0  0  0  0  0
   14.1345   30.5977   24.2199 N   0  0  0  0  0  0  0  0  0  0  0  0
   14.6331   31.9236   24.4025 C   0  0  0  0  0  0  0  0  0  0  0  0
   14.9025   32.5544   23.3305 O   0  0  0  0  0  0  0  0  0  0  0  0
   14.8229   32.5193   25.7139 C   0  0  0  0  0  0  0  0  0  0  0  0
   15.2039   33.8281   25.9140 C   0  0  0  0  0  0  0  0  0  0  0  0
   15.3767   34.3680   27.1613 C   0  0  0  0  0  0  0  0  0  0  0  0
   15.1626   33.5755   28.2771 C   0  0  0  0  0  0  0  0  0  0  0  0
   14.7844   32.2763   28.0844 C   0  0  0  0  0  0  0  0  0  0  0  0
   14.6117   31.7376   26.8184 C   0  0  0  0  0  0  0  0  0  0  0  0
   14.5148   31.2775   29.5079 Cl  0  0  0  0  0  0  0  0  0  0  0  0
  1  2  1  1
  1  3  1  0
  1  4  1  0
  4  5  1  0
  5  6  1  0
  6  7  1  0
  7  8  1  6
  7  9  1  0
  9 10  1  6
  9 11  1  0
 11 12  2  0
 11 13  1  0
 13 14  1  0
 14 15  1  0
 15 16  2  0
 15 17  1  0
 17 18  2  0
 18 19  1  0
 19 20  2  0
 20 21  1  0
 17 22  1  0
 21 22  2  0
 21 23  1  0
M  END
$$$$
