7TWC_CXS_A_501
     RDKit          3D

 33 33  0  0  0  0  0  0  0  0999 V2000
    5.6780   10.7835   14.0997 S   0  0  1  0  0  6  0  0  0  0  0  0
    6.5475    9.6394   13.8806 O   0  0  0  0  0  0  0  0  0  0  0  0
    5.9254   11.4788   15.3231 O   0  0  0  0  0  0  0  0  0  0  0  0
    5.8353   11.7970   12.8488 O   0  0  0  0  0  0  0  0  0  0  0  0
    4.0947   10.2360   14.0750 C   0  0  0  0  0  0  0  0  0  0  0  0
    3.1356   11.4245   14.2044 C   0  0  0  0  0  0  0  0  0  0  0  0
    3.0794   11.9840   15.6254 C   0  0  0  0  0  0  0  0  0  0  0  0
    4.1657   11.4168   16.4438 N   0  0  0  0  0  0  0  0  0  0  0  0
    5.1541   10.6367   15.6570 C   0  0  2  0  0  0  0  0  0  0  0  0
    6.4735   10.5767   16.4082 C   0  0  0  0  0  0  0  0  0  0  0  0
    7.7008   10.4771   15.4923 C   0  0  0  0  0  0  0  0  0  0  0  0
    7.4050    9.7463   14.1901 C   0  0  0  0  0  0  0  0  0  0  0  0
    6.3789   10.5225   13.3965 C   0  0  0  0  0  0  0  0  0  0  0  0
    5.3575   11.2398   14.2797 C   0  0  0  0  0  0  0  0  0  0  0  0
    6.7420   12.1407   12.8233 H   0  0  0  0  0  0  0  0  0  0  0  0
    3.9085    9.7274   13.1522 H   0  0  0  0  0  0  0  0  0  0  0  0
    3.9392    9.5641   14.8930 H   0  0  0  0  0  0  0  0  0  0  0  0
    3.4606   12.2005   13.5434 H   0  0  0  0  0  0  0  0  0  0  0  0
    2.1549   11.0773   13.9544 H   0  0  0  0  0  0  0  0  0  0  0  0
    3.1837   13.0483   15.5896 H   0  0  0  0  0  0  0  0  0  0  0  0
    2.1399   11.7214   16.0652 H   0  0  0  0  0  0  0  0  0  0  0  0
    4.6544   12.1827   16.9076 H   0  0  0  0  0  0  0  0  0  0  0  0
    4.7759    9.6443   15.5260 H   0  0  0  0  0  0  0  0  0  0  0  0
    6.5653   11.4628   17.0009 H   0  0  0  0  0  0  0  0  0  0  0  0
    6.4543    9.6876   17.0032 H   0  0  0  0  0  0  0  0  0  0  0  0
    8.0364   11.4664   15.2610 H   0  0  0  0  0  0  0  0  0  0  0  0
    8.4486    9.9173   16.0141 H   0  0  0  0  0  0  0  0  0  0  0  0
    8.3052    9.6580   13.6186 H   0  0  0  0  0  0  0  0  0  0  0  0
    7.0227    8.7709   14.4081 H   0  0  0  0  0  0  0  0  0  0  0  0
    6.8883   11.2524   12.8026 H   0  0  0  0  0  0  0  0  0  0  0  0
    5.8427    9.8199   12.7932 H   0  0  0  0  0  0  0  0  0  0  0  0
    4.4158   11.2289   13.7718 H   0  0  0  0  0  0  0  0  0  0  0  0
    5.7459   12.2236   14.4420 H   0  0  0  0  0  0  0  0  0  0  0  0
  1  2  2  0
  1  3  2  0
  1  4  1  1
  1  5  1  0
  5  6  1  0
  6  7  1  0
  7  8  1  0
  8  9  1  0
  9 10  1  0
 10 11  1  0
 11 12  1  0
 12 13  1  0
  9 14  1  0
 13 14  1  0
  4 15  1  0
  5 16  1  0
  5 17  1  0
  6 18  1  0
  6 19  1  0
  7 20  1  0
  7 21  1  0
  8 22  1  0
  9 23  1  1
 10 24  1  0
 10 25  1  0
 11 26  1  0
 11 27  1  0
 12 28  1  0
 12 29  1  0
 13 30  1  0
 13 31  1  0
 14 32  1  0
 14 33  1  0
M  END
