7OZC_G6S_AAA_601
     RDKit          3D

 16 16  0  0  0  0  0  0  0  0999 V2000
   13.2175   -1.2768   18.1114 C   0  0  2  0  0  0  0  0  0  0  0  0
   11.9499   -1.6617   18.8472 C   0  0  1  0  0  0  0  0  0  0  0  0
   11.8647   -0.6475   19.9799 C   0  0  2  0  0  0  0  0  0  0  0  0
   13.1480   -0.4815   20.7104 C   0  0  2  0  0  0  0  0  0  0  0  0
   14.3881   -0.7817   19.9361 C   0  0  1  0  0  0  0  0  0  0  0  0
   15.4686   -1.1512   20.9343 C   0  0  0  0  0  0  0  0  0  0  0  0
   13.2810   -1.8045   16.8410 O   0  0  0  0  0  0  0  0  0  0  0  0
   10.8183   -1.6344   18.0779 O   0  0  0  0  0  0  0  0  0  0  0  0
   13.0857   -1.2296   21.8925 O   0  0  0  0  0  0  0  0  0  0  0  0
   14.2454   -1.7226   18.9424 O   0  0  0  0  0  0  0  0  0  0  0  0
   16.3540   -2.0894   20.4713 O   0  0  0  0  0  0  0  0  0  0  0  0
   17.9003   -1.4089   20.6675 S   0  0  1  0  0  6  0  0  0  0  0  0
   17.9547   -0.0059   20.1462 O   0  0  0  0  0  0  0  0  0  0  0  0
   18.2132   -1.4594   22.1516 O   0  0  0  0  0  0  0  0  0  0  0  0
   19.0655   -2.3428   19.8972 O   0  0  0  0  0  0  0  0  0  0  0  0
   10.8009   -0.9760   20.8201 O   0  0  0  0  0  0  0  0  0  0  0  0
  1  2  1  0
  2  3  1  0
  3  4  1  0
  4  5  1  0
  5  6  1  0
  1  7  1  6
  2  8  1  6
  4  9  1  1
  1 10  1  0
  5 10  1  6
  6 11  1  1
 11 12  1  0
 12 13  2  0
 12 14  2  0
 12 15  1  6
  3 16  1  1
M  END
$$$$
