8D19_GSH_A_501
     RDKit          3D

 20 19  0  0  0  0  0  0  0  0999 V2000
   37.2597   24.5835   28.9023 N   0  0  0  0  0  0  0  0  0  0  0  0
   37.6263   23.2553   28.4320 C   0  0  2  0  0  0  0  0  0  0  0  0
   37.9342   22.4671   29.6472 C   0  0  0  0  0  0  0  0  0  0  0  0
   37.8749   23.0767   30.7607 O   0  0  0  0  0  0  0  0  0  0  0  0
   38.2751   21.1443   29.6749 O   0  0  0  0  0  0  0  0  0  0  0  0
   38.8068   23.3670   27.5259 C   0  0  0  0  0  0  0  0  0  0  0  0
   38.5477   24.2627   26.3626 C   0  0  0  0  0  0  0  0  0  0  0  0
   39.6854   24.3831   25.4200 C   0  0  0  0  0  0  0  0  0  0  0  0
   40.4828   23.4732   25.1373 O   0  0  0  0  0  0  0  0  0  0  0  0
   39.8743   25.6455   24.7912 N   0  0  0  0  0  0  0  0  0  0  0  0
   41.0115   25.8503   23.8698 C   0  0  2  0  0  0  0  0  0  0  0  0
   42.0461   26.5721   24.6389 C   0  0  0  0  0  0  0  0  0  0  0  0
   41.6338   27.4985   25.4092 O   0  0  0  0  0  0  0  0  0  0  0  0
   40.5154   26.6748   22.7007 C   0  0  0  0  0  0  0  0  0  0  0  0
   40.3481   25.7215   21.1893 S   0  0  0  0  0  0  0  0  0  0  0  0
   43.4225   26.3302   24.5971 N   0  0  0  0  0  0  0  0  0  0  0  0
   44.2814   27.0930   25.4901 C   0  0  0  0  0  0  0  0  0  0  0  0
   45.3838   26.2202   25.9421 C   0  0  0  0  0  0  0  0  0  0  0  0
   45.4907   25.0273   25.5415 O   0  0  0  0  0  0  0  0  0  0  0  0
   46.3746   26.6463   26.8341 O   0  0  0  0  0  0  0  0  0  0  0  0
  2  1  1  1
  2  3  1  0
  3  4  2  0
  3  5  1  0
  2  6  1  0
  6  7  1  0
  7  8  1  0
  8  9  2  0
  8 10  1  0
 10 11  1  0
 11 12  1  0
 12 13  2  0
 11 14  1  6
 14 15  1  0
 12 16  1  0
 16 17  1  0
 17 18  1  0
 18 19  2  0
 18 20  1  0
M  END
$$$$
