7ZL5_IWE_AAA_303
     RDKit          3D

 23 25  0  0  0  0  0  0  0  0999 V2000
  -14.8740   34.7450   45.3570 N   0  0  0  0  0  0  0  0  0  0  0  0
  -18.0170   36.4960   41.7540 C   0  0  0  0  0  0  0  0  0  0  0  0
  -18.4550   36.9960   42.9630 C   0  0  0  0  0  0  0  0  0  0  0  0
  -17.8880   36.5750   44.1590 C   0  0  0  0  0  0  0  0  0  0  0  0
  -16.8460   35.6210   44.1190 C   0  0  0  0  0  0  0  0  0  0  0  0
  -16.1310   35.1810   45.3380 C   0  0  0  0  0  0  0  0  0  0  0  0
  -16.4460   35.1120   42.8820 C   0  0  0  0  0  0  0  0  0  0  0  0
  -19.3970   38.0720   45.5290 C   0  0  0  0  0  0  0  0  0  0  0  0
  -17.2750   33.8610   39.7280 O   0  0  0  0  0  0  0  0  0  0  0  0
  -20.7230   37.3980   45.4200 C   0  0  0  0  0  0  0  0  0  0  0  0
  -22.7950   36.0950   45.8120 C   0  0  0  0  0  0  0  0  0  0  0  0
  -22.8660   36.9620   44.7790 C   0  0  0  0  0  0  0  0  0  0  0  0
  -15.5880   34.9620   47.4250 N   0  0  0  0  0  0  0  0  0  0  0  0
  -21.6790   37.6890   44.5570 C   0  0  0  0  0  0  0  0  0  0  0  0
  -14.5860   34.6220   46.6460 N   0  0  0  0  0  0  0  0  0  0  0  0
  -18.9290   36.9590   40.3570 Cl  0  0  0  0  0  0  0  0  0  0  0  0
  -16.5720   35.3380   46.6180 N   0  0  0  0  0  0  0  0  0  0  0  0
  -17.0030   35.5380   41.6880 C   0  0  0  0  0  0  0  0  0  0  0  0
  -16.3420   34.8750   40.1800 S   0  0  0  0  0  0  0  0  0  0  0  0
  -14.9760   34.1950   40.5620 N   0  0  0  0  0  0  0  0  0  0  0  0
  -16.1460   36.0110   39.3270 O   0  0  0  0  0  0  0  0  0  0  0  0
  -18.2930   37.1460   45.3700 N   0  0  0  0  0  0  0  0  0  0  0  0
  -21.2850   36.1620   46.5240 S   0  0  0  0  0  0  0  0  0  0  0  0
  2  3  2  0
  3  4  1  0
  4  5  2  0
  5  6  1  0
  1  6  1  0
  5  7  1  0
  8 10  1  0
 11 12  2  0
 12 14  1  0
 10 14  2  0
  1 15  1  0
 13 15  2  0
  2 16  1  0
  6 17  2  0
 13 17  1  0
  2 18  1  0
  7 18  2  0
  9 19  2  0
 18 19  1  0
 19 20  1  0
 19 21  2  0
  4 22  1  0
  8 22  1  0
 10 23  1  0
 11 23  1  0
M  END
$$$$
7ZL5_IWE_BBB_302
     RDKit          3D

 23 25  0  0  0  0  0  0  0  0999 V2000
   26.6860   34.6030   52.9050 N   0  0  0  0  0  0  0  0  0  0  0  0
   29.8610   36.3220   56.4630 C   0  0  0  0  0  0  0  0  0  0  0  0
   30.2800   36.8280   55.2550 C   0  0  0  0  0  0  0  0  0  0  0  0
   29.6790   36.4680   54.0730 C   0  0  0  0  0  0  0  0  0  0  0  0
   28.6210   35.5470   54.1130 C   0  0  0  0  0  0  0  0  0  0  0  0
   27.9190   35.0850   52.9010 C   0  0  0  0  0  0  0  0  0  0  0  0
   28.2260   35.0130   55.3460 C   0  0  0  0  0  0  0  0  0  0  0  0
   31.1370   38.0550   52.7420 C   0  0  0  0  0  0  0  0  0  0  0  0
   27.9810   35.8620   58.9560 O   0  0  0  0  0  0  0  0  0  0  0  0
   32.3770   37.2640   52.4800 C   0  0  0  0  0  0  0  0  0  0  0  0
   34.5300   36.1640   52.4660 C   0  0  0  0  0  0  0  0  0  0  0  0
   33.6860   35.5850   51.5970 C   0  0  0  0  0  0  0  0  0  0  0  0
   27.4320   34.8590   50.8500 N   0  0  0  0  0  0  0  0  0  0  0  0
   32.5070   36.1830   51.5820 C   0  0  0  0  0  0  0  0  0  0  0  0
   26.4350   34.4810   51.6090 N   0  0  0  0  0  0  0  0  0  0  0  0
   30.7900   36.7720   57.8400 Cl  0  0  0  0  0  0  0  0  0  0  0  0
   28.3990   35.2480   51.6560 N   0  0  0  0  0  0  0  0  0  0  0  0
   28.8140   35.4090   56.5460 C   0  0  0  0  0  0  0  0  0  0  0  0
   28.1810   34.7700   58.0710 S   0  0  0  0  0  0  0  0  0  0  0  0
   26.7910   34.0980   57.7830 N   0  0  0  0  0  0  0  0  0  0  0  0
   29.1370   33.7450   58.5350 O   0  0  0  0  0  0  0  0  0  0  0  0
   30.0650   37.0830   52.8730 N   0  0  0  0  0  0  0  0  0  0  0  0
   33.8350   37.4780   53.2860 S   0  0  0  0  0  0  0  0  0  0  0  0
  2  3  2  0
  3  4  1  0
  4  5  2  0
  5  6  1  0
  1  6  1  0
  5  7  1  0
  8 10  1  0
 11 12  2  0
 12 14  1  0
 10 14  2  0
  1 15  1  0
 13 15  2  0
  2 16  1  0
  6 17  2  0
 13 17  1  0
  2 18  1  0
  7 18  2  0
  9 19  2  0
 18 19  1  0
 19 20  1  0
 19 21  2  0
  4 22  1  0
  8 22  1  0
 10 23  1  0
 11 23  1  0
M  END
$$$$
