7ZL5_IWE_AAA_303
     RDKit          3D

 34 36  0  0  0  0  0  0  0  0999 V2000
   -2.1737   -1.7681   -0.8149 N   0  0  0  0  0  0  0  0  0  0  0  0
    0.6712    1.9408    1.4390 C   0  0  0  0  0  0  0  0  0  0  0  0
    1.0864    0.9605    0.5334 C   0  0  0  0  0  0  0  0  0  0  0  0
    0.2528   -0.1219    0.2027 C   0  0  0  0  0  0  0  0  0  0  0  0
   -1.0349   -0.2014    0.7832 C   0  0  0  0  0  0  0  0  0  0  0  0
   -1.9986   -1.2642    0.4190 C   0  0  0  0  0  0  0  0  0  0  0  0
   -1.4356    0.7744    1.7100 C   0  0  0  0  0  0  0  0  0  0  0  0
    1.7423   -0.9448   -1.6926 C   0  0  0  0  0  0  0  0  0  0  0  0
   -2.6394    2.9042    3.4339 O   0  0  0  0  0  0  0  0  0  0  0  0
    1.7172   -2.0591   -2.6904 C   0  0  0  0  0  0  0  0  0  0  0  0
    1.9894   -4.1942   -3.9666 C   0  0  0  0  0  0  0  0  0  0  0  0
    0.9724   -3.3823   -4.4532 C   0  0  0  0  0  0  0  0  0  0  0  0
   -3.5938   -2.6566    0.5366 N   0  0  0  0  0  0  0  0  0  0  0  0
    0.8122   -2.1914   -3.7352 C   0  0  0  0  0  0  0  0  0  0  0  0
   -3.1664   -2.6332   -0.7169 N   0  0  0  0  0  0  0  0  0  0  0  0
    1.7921    3.2466    1.8115 Cl  0  0  0  0  0  0  0  0  0  0  0  0
   -2.8906   -1.8053    1.2706 N   0  0  0  0  0  0  0  0  0  0  0  0
   -0.5994    1.8504    2.0379 C   0  0  0  0  0  0  0  0  0  0  0  0
   -1.1611    3.0557    3.2069 S   0  0  0  0  0  6  0  0  0  0  0  0
   -0.3401    2.8396    4.7135 N   0  0  0  0  0  0  0  0  0  0  0  0
   -0.9027    4.4397    2.6812 O   0  0  0  0  0  0  0  0  0  0  0  0
    0.7424   -1.1739   -0.6499 N   0  0  0  0  0  0  0  0  0  0  0  0
    2.6868   -3.4313   -2.6393 S   0  0  0  0  0  0  0  0  0  0  0  0
   -1.6778   -1.5190   -1.6989 H   0  0  0  0  0  0  0  0  0  0  0  0
    2.0801    1.0315    0.1113 H   0  0  0  0  0  0  0  0  0  0  0  0
   -2.4177    0.7061    2.1613 H   0  0  0  0  0  0  0  0  0  0  0  0
    1.5247    0.0101   -2.2185 H   0  0  0  0  0  0  0  0  0  0  0  0
    2.7511   -0.8771   -1.2334 H   0  0  0  0  0  0  0  0  0  0  0  0
    2.2739   -5.1577   -4.3672 H   0  0  0  0  0  0  0  0  0  0  0  0
    0.3553   -3.6505   -5.3003 H   0  0  0  0  0  0  0  0  0  0  0  0
    0.0528   -1.4558   -3.9662 H   0  0  0  0  0  0  0  0  0  0  0  0
   -0.4723    1.8416    4.9923 H   0  0  0  0  0  0  0  0  0  0  0  0
    0.6801    2.9696    4.5340 H   0  0  0  0  0  0  0  0  0  0  0  0
    0.3958   -2.1481   -0.4943 H   0  0  0  0  0  0  0  0  0  0  0  0
  2  3  2  0
  3  4  1  0
  4  5  2  0
  5  6  1  0
  1  6  1  0
  5  7  1  0
  8 10  1  0
 11 12  2  0
 12 14  1  0
 10 14  2  0
  1 15  1  0
 13 15  2  0
  2 16  1  0
  6 17  2  0
 13 17  1  0
  2 18  1  0
  7 18  2  0
  9 19  2  0
 18 19  1  0
 19 20  1  0
 19 21  2  0
  4 22  1  0
  8 22  1  0
 10 23  1  0
 11 23  1  0
  1 24  1  0
  3 25  1  0
  7 26  1  0
  8 27  1  0
  8 28  1  0
 11 29  1  0
 12 30  1  0
 14 31  1  0
 20 32  1  0
 20 33  1  0
 22 34  1  0
M  END
