6Z14_Q4Z_JJJ_1103
     RDKit          3D

 18 19  0  0  0  0  0  0  0  0999 V2000
   18.0127  -15.1991    0.3208 O   0  0  0  0  0  0  0  0  0  0  0  0
   16.7327  -16.8482   -1.0563 O   0  0  0  0  0  0  0  0  0  0  0  0
   16.6836  -15.5773   -0.2583 S   0  0  1  0  0  0  0  0  0  0  0  0
   15.5589  -15.7404    0.9939 O   0  0  0  0  0  0  0  0  0  0  0  0
   17.4869  -11.3731   -3.5473 C   0  0  1  0  0  0  0  0  0  0  0  0
   16.9998  -10.0269   -2.9935 C   0  0  1  0  0  0  0  0  0  0  0  0
   16.4723  -10.1956   -1.6167 C   0  0  2  0  0  0  0  0  0  0  0  0
   16.2923  -11.6765   -1.3343 C   0  0  1  0  0  0  0  0  0  0  0  0
   17.5424  -12.4582   -1.5888 C   0  0  1  0  0  0  0  0  0  0  0  0
   17.2678  -13.8769   -2.0720 C   0  0  0  0  0  0  0  0  0  0  0  0
   18.9967   -9.7897   -4.0227 C   0  0  0  0  0  0  0  0  0  0  0  0
   20.3658   -9.3023   -4.4173 C   0  0  0  0  0  0  0  0  0  0  0  0
   18.2515   -9.2972   -3.0824 N   0  0  0  0  0  0  0  0  0  0  0  0
   18.2899  -10.8574   -4.6004 O   0  0  0  0  0  0  0  0  0  0  0  0
   15.1981   -9.6282   -1.5747 O   0  0  0  0  0  0  0  0  0  0  0  0
   15.8850  -11.7910    0.0025 O   0  0  0  0  0  0  0  0  0  0  0  0
   18.3467  -11.8865   -2.6019 O   0  0  0  0  0  0  0  0  0  0  0  0
   16.1990  -14.3429   -1.2827 O   0  0  0  0  0  0  0  0  0  0  0  0
  2  3  2  0
  1  3  2  0
  3  4  1  1
  5  6  1  0
  6  7  1  0
  7  8  1  0
  8  9  1  0
  9 10  1  6
 11 12  1  0
  6 13  1  1
 11 13  2  0
 11 14  1  0
  5 14  1  6
  7 15  1  6
  8 16  1  1
  9 17  1  0
  5 17  1  0
 10 18  1  0
  3 18  1  0
M  CHG  2   4  -1  13   1
M  END
$$$$
