7OU8_1XI_AAA_801
     RDKit          3D

 23 25  0  0  0  0  0  0  0  0999 V2000
   -2.1138   78.0326   66.4565 C   0  0  2  0  0  0  0  0  0  0  0  0
   -2.3171   77.0038   67.4999 C   0  0  2  0  0  0  0  0  0  0  0  0
   -3.6592   77.0872   68.1836 C   0  0  1  0  0  0  0  0  0  0  0  0
   -4.5727   78.6741   69.8345 N   0  0  0  0  0  0  0  0  0  0  0  0
   -2.5161   79.3517   66.8447 N   0  0  0  0  0  0  0  0  0  0  0  0
   -3.0891   79.5305   68.1851 C   0  0  0  0  0  0  0  0  0  0  0  0
   -3.9758   79.4024   72.2062 C   0  0  0  0  0  0  0  0  0  0  0  0
   -3.5766   79.0406   70.8022 C   0  0  0  0  0  0  0  0  0  0  0  0
   -2.3518   79.0745   70.5245 O   0  0  0  0  0  0  0  0  0  0  0  0
   -4.1299   78.4710   68.4682 C   0  0  1  0  0  0  0  0  0  0  0  0
   -2.2555   80.2573   65.7788 C   0  0  0  0  0  0  0  0  0  0  0  0
   -1.9878   81.4985   65.8971 N   0  0  0  0  0  0  0  0  0  0  0  0
   -1.7545   82.3785   64.7814 C   0  0  0  0  0  0  0  0  0  0  0  0
   -3.0791   82.8144   64.2613 C   0  0  0  0  0  0  0  0  0  0  0  0
   -3.9253   83.6309   64.9897 C   0  0  0  0  0  0  0  0  0  0  0  0
   -5.1615   84.0345   64.4978 C   0  0  0  0  0  0  0  0  0  0  0  0
   -5.5536   83.6074   63.2472 C   0  0  0  0  0  0  0  0  0  0  0  0
   -4.7319   82.7851   62.4819 C   0  0  0  0  0  0  0  0  0  0  0  0
   -3.5141   82.4115   63.0138 C   0  0  0  0  0  0  0  0  0  0  0  0
   -2.3891   79.2672   64.2705 S   0  0  0  0  0  0  0  0  0  0  0  0
   -2.8177   77.7027   65.1402 C   0  0  0  0  0  0  0  0  0  0  0  0
   -1.2948   77.0634   68.4527 O   0  0  0  0  0  0  0  0  0  0  0  0
   -4.5649   76.3534   67.4090 O   0  0  0  0  0  0  0  0  0  0  0  0
  1  2  1  0
  2  3  1  0
  1  5  1  1
  6  5  1  1
  7  8  1  6
  4  8  1  0
  8  9  2  0
 10  4  1  1
  3 10  1  0
  6 10  1  0
  5 11  1  0
 11 12  2  0
 13 12  1  6
 13 14  1  0
 14 15  2  0
 15 16  1  0
 16 17  2  0
 17 18  1  0
 18 19  2  0
 14 19  1  0
 11 20  1  0
  1 21  1  0
 21 20  1  1
  2 22  1  1
  3 23  1  6
M  END
$$$$
