8AIJ_M9I_BBB_203
     RDKit          3D

 36 37  0  0  0  0  0  0  0  0999 V2000
    5.7551   19.9282   25.0127 C   0  0  2  0  0  0  0  0  0  0  0  0
    6.1032   18.7249   24.1278 C   0  0  1  0  0  0  0  0  0  0  0  0
    6.9087   19.1478   22.9178 C   0  0  2  0  0  0  0  0  0  0  0  0
    6.1991   20.2630   22.1656 C   0  0  2  0  0  0  0  0  0  0  0  0
    5.8952   21.4219   23.0982 C   0  0  1  0  0  0  0  0  0  0  0  0
    5.0772   22.4990   22.4209 C   0  0  0  0  0  0  0  0  0  0  0  0
    6.8203   17.7379   24.8566 O   0  0  0  0  0  0  0  0  0  0  0  0
    7.0815   18.0265   22.0554 O   0  0  0  0  0  0  0  0  0  0  0  0
    5.0077   19.6863   21.6060 O   0  0  0  0  0  0  0  0  0  0  0  0
    5.1399   20.9612   24.2388 O   0  0  0  0  0  0  0  0  0  0  0  0
    9.0377   20.6360   25.0928 O   0  0  0  0  0  0  0  0  0  0  0  0
    8.1173   19.9197   25.4911 C   0  0  0  0  0  0  0  0  0  0  0  0
    6.9114   20.4039   25.7299 N   0  0  0  0  0  0  0  0  0  0  0  0
    8.3332   18.4630   25.7642 C   0  0  0  0  0  0  0  0  0  0  0  0
    8.8782   18.0756   26.9716 C   0  0  0  0  0  0  0  0  0  0  0  0
    7.9690   17.4928   24.8260 C   0  0  0  0  0  0  0  0  0  0  0  0
    8.1712   16.1439   25.0948 C   0  0  0  0  0  0  0  0  0  0  0  0
    8.7049   15.7714   26.3050 C   0  0  0  0  0  0  0  0  0  0  0  0
    9.0495   16.7283   27.2403 C   0  0  0  0  0  0  0  0  0  0  0  0
    5.0455   19.6108   25.7479 H   0  0  0  0  0  0  0  0  0  0  0  0
    5.1778   18.3026   23.7959 H   0  0  0  0  0  0  0  0  0  0  0  0
    7.8615   19.5093   23.2441 H   0  0  0  0  0  0  0  0  0  0  0  0
    6.8098   20.6658   21.3849 H   0  0  0  0  0  0  0  0  0  0  0  0
    6.8400   21.8269   23.3954 H   0  0  0  0  0  0  0  0  0  0  0  0
    4.1322   22.0949   22.1231 H   0  0  0  0  0  0  0  0  0  0  0  0
    4.9200   23.3089   23.1021 H   0  0  0  0  0  0  0  0  0  0  0  0
    5.6006   22.8549   21.5582 H   0  0  0  0  0  0  0  0  0  0  0  0
    7.6621   18.1101   25.1628 H   0  0  0  0  0  0  0  0  0  0  0  0
    6.2134   17.7055   21.7646 H   0  0  0  0  0  0  0  0  0  0  0  0
    4.4588   19.3231   22.3185 H   0  0  0  0  0  0  0  0  0  0  0  0
    6.8002   21.1048   26.4124 H   0  0  0  0  0  0  0  0  0  0  0  0
    9.1558   18.7845   27.6684 H   0  0  0  0  0  0  0  0  0  0  0  0
    7.5476   17.7795   23.9287 H   0  0  0  0  0  0  0  0  0  0  0  0
    7.9231   15.4296   24.3925 H   0  0  0  0  0  0  0  0  0  0  0  0
    8.8492   14.7716   26.5163 H   0  0  0  0  0  0  0  0  0  0  0  0
    9.4391   16.4352   28.1499 H   0  0  0  0  0  0  0  0  0  0  0  0
  1  2  1  0
  2  3  1  0
  3  4  1  0
  4  5  1  0
  5  6  1  0
  2  7  1  0
  3  8  1  0
  4  9  1  0
  1 10  1  0
  5 10  1  0
 11 12  2  0
  1 13  1  0
 12 13  1  0
 12 14  1  0
 14 15  4  0
 14 16  4  0
 16 17  4  0
 17 18  4  0
 18 19  4  0
 15 19  4  0
  1 20  1  6
  2 21  1  1
  3 22  1  6
  4 23  1  1
  5 24  1  6
  6 25  1  0
  6 26  1  0
  6 27  1  0
  7 28  1  0
  8 29  1  0
  9 30  1  0
 13 31  1  0
 15 32  1  0
 16 33  1  0
 17 34  1  0
 18 35  1  0
 19 36  1  0
M  END
