1N46_PFA_A_462
     RDKit          3D

 27 29  0  0  0  0  0  0  0  0999 V2000
    4.7600   13.2051  -12.9748 O   0  0  0  0  0  0  0  0  0  0  0  0
    5.2831   14.3522  -12.9726 C   0  0  0  0  0  0  0  0  0  0  0  0
    4.5847   15.4655  -13.2674 N   0  0  0  0  0  0  0  0  0  0  0  0
    5.2078   16.6621  -13.2460 C   0  0  0  0  0  0  0  0  0  0  0  0
    4.5625   17.7293  -13.5226 O   0  0  0  0  0  0  0  0  0  0  0  0
    6.5900   14.4466  -12.6611 N   0  0  0  0  0  0  0  0  0  0  0  0
    7.2215   15.6309  -12.6363 N   0  0  0  0  0  0  0  0  0  0  0  0
    6.5412   16.7672  -12.9292 C   0  0  0  0  0  0  0  0  0  0  0  0
    7.3968   13.3192  -12.3380 C   0  0  0  0  0  0  0  0  0  0  0  0
    8.1534   13.3720  -11.1668 C   0  0  0  0  0  0  0  0  0  0  0  0
    8.9396   12.2875  -10.8410 C   0  0  0  0  0  0  0  0  0  0  0  0
    9.7491   12.3403   -9.5909 C   0  0  0  0  0  0  0  0  0  0  0  0
    7.4593   12.1893  -13.1284 C   0  0  0  0  0  0  0  0  0  0  0  0
    8.2654   11.1110  -12.7679 C   0  0  0  0  0  0  0  0  0  0  0  0
    8.3204    9.9028  -13.6307 C   0  0  0  0  0  0  0  0  0  0  0  0
    9.0191   11.1474  -11.6140 C   0  0  0  0  0  0  0  0  0  0  0  0
    9.8315   10.1093  -11.2127 O   0  0  0  0  0  0  0  0  0  0  0  0
   11.0614    9.9552  -11.8226 C   0  0  0  0  0  0  0  0  0  0  0  0
   11.5881   10.8541  -12.7267 C   0  0  0  0  0  0  0  0  0  0  0  0
   11.7822    8.8139  -11.4798 C   0  0  0  0  0  0  0  0  0  0  0  0
   13.0212    8.5331  -12.0105 C   0  0  0  0  0  0  0  0  0  0  0  0
   13.7479    7.2917  -11.6044 C   0  0  1  0  0  0  0  0  0  0  0  0
   13.8772    7.3012  -10.1101 C   0  0  0  0  0  0  0  0  0  0  0  0
   13.0532    6.0792  -12.1510 C   0  0  0  0  0  0  0  0  0  0  0  0
   13.5467    9.4346  -12.9157 C   0  0  0  0  0  0  0  0  0  0  0  0
   12.8268   10.5651  -13.2518 C   0  0  0  0  0  0  0  0  0  0  0  0
   14.7985    9.1999  -13.4846 O   0  0  0  0  0  0  0  0  0  0  0  0
  1  2  2  0
  2  3  1  0
  3  4  1  0
  4  5  2  0
  2  6  1  0
  6  7  1  0
  4  8  1  0
  7  8  2  0
  6  9  1  0
  9 10  2  0
 10 11  1  0
 11 12  1  0
  9 13  1  0
 13 14  2  0
 14 15  1  0
 11 16  2  0
 14 16  1  0
 16 17  1  0
 17 18  1  0
 18 19  2  0
 18 20  1  0
 20 21  2  0
 21 22  1  0
 22 23  1  1
 22 24  1  0
 21 25  1  0
 19 26  1  0
 25 26  2  0
 25 27  1  0
M  END
$$$$
