1N46_PFA_A_462
     RDKit          3D

 27 29  0  0  0  0  0  0  0  0999 V2000
   14.2850   -1.0587  -34.6124 O   0  0  0  0  0  0  0  0  0  0  0  0
   14.0829   -0.2461  -35.5549 C   0  0  0  0  0  0  0  0  0  0  0  0
   12.8584    0.2339  -35.8453 N   0  0  0  0  0  0  0  0  0  0  0  0
   12.7137    1.1014  -36.8686 C   0  0  0  0  0  0  0  0  0  0  0  0
   11.5605    1.5676  -37.1593 O   0  0  0  0  0  0  0  0  0  0  0  0
   15.1440    0.1442  -36.2868 N   0  0  0  0  0  0  0  0  0  0  0  0
   15.0134    1.0066  -37.3073 N   0  0  0  0  0  0  0  0  0  0  0  0
   13.7913    1.5048  -37.6204 C   0  0  0  0  0  0  0  0  0  0  0  0
   16.4689   -0.3164  -36.0444 C   0  0  0  0  0  0  0  0  0  0  0  0
   16.7182   -1.6835  -36.1703 C   0  0  0  0  0  0  0  0  0  0  0  0
   17.9967   -2.1442  -35.9385 C   0  0  0  0  0  0  0  0  0  0  0  0
   18.2666   -3.6036  -36.0721 C   0  0  0  0  0  0  0  0  0  0  0  0
   17.5045    0.5263  -35.6938 C   0  0  0  0  0  0  0  0  0  0  0  0
   18.7852    0.0256  -35.4669 C   0  0  0  0  0  0  0  0  0  0  0  0
   19.8878    0.9473  -35.0903 C   0  0  0  0  0  0  0  0  0  0  0  0
   19.0479   -1.3225  -35.5871 C   0  0  0  0  0  0  0  0  0  0  0  0
   20.2952   -1.8682  -35.3740 O   0  0  0  0  0  0  0  0  0  0  0  0
   21.1539   -2.0005  -36.4479 C   0  0  0  0  0  0  0  0  0  0  0  0
   20.8341   -1.6287  -37.7372 C   0  0  0  0  0  0  0  0  0  0  0  0
   22.4062   -2.5448  -36.1740 C   0  0  0  0  0  0  0  0  0  0  0  0
   23.3609   -2.7340  -37.1479 C   0  0  0  0  0  0  0  0  0  0  0  0
   24.6882   -3.3230  -36.7937 C   0  0  1  0  0  0  0  0  0  0  0  0
   25.3525   -2.4049  -35.8111 C   0  0  0  0  0  0  0  0  0  0  0  0
   24.5183   -4.7294  -36.2989 C   0  0  0  0  0  0  0  0  0  0  0  0
   23.0384   -2.3610  -38.4382 C   0  0  0  0  0  0  0  0  0  0  0  0
   21.7944   -1.8215  -38.7038 C   0  0  0  0  0  0  0  0  0  0  0  0
   23.9680   -2.5303  -39.4644 O   0  0  0  0  0  0  0  0  0  0  0  0
  1  2  2  0
  2  3  1  0
  3  4  1  0
  4  5  2  0
  2  6  1  0
  6  7  1  0
  4  8  1  0
  7  8  2  0
  6  9  1  0
  9 10  2  0
 10 11  1  0
 11 12  1  0
  9 13  1  0
 13 14  2  0
 14 15  1  0
 11 16  2  0
 14 16  1  0
 16 17  1  0
 17 18  1  0
 18 19  2  0
 18 20  1  0
 20 21  2  0
 21 22  1  0
 22 23  1  1
 22 24  1  0
 21 25  1  0
 19 26  1  0
 25 26  2  0
 25 27  1  0
M  END
$$$$
