1N46_PFA_A_462
     RDKit          3D

 27 29  0  0  0  0  0  0  0  0999 V2000
    6.1081   12.7294  -22.7722 O   0  0  0  0  0  0  0  0  0  0  0  0
    5.6132   11.5717  -22.7068 C   0  0  0  0  0  0  0  0  0  0  0  0
    4.3726   11.3416  -22.2354 N   0  0  0  0  0  0  0  0  0  0  0  0
    3.9052   10.0765  -22.1935 C   0  0  0  0  0  0  0  0  0  0  0  0
    2.7313    9.8382  -21.7498 O   0  0  0  0  0  0  0  0  0  0  0  0
    6.3691   10.5401  -23.1289 N   0  0  0  0  0  0  0  0  0  0  0  0
    5.9158    9.2770  -23.0924 N   0  0  0  0  0  0  0  0  0  0  0  0
    4.6702    9.0181  -22.6223 C   0  0  0  0  0  0  0  0  0  0  0  0
    7.6882   10.6992  -23.6400 C   0  0  0  0  0  0  0  0  0  0  0  0
    8.7437   10.1641  -22.9007 C   0  0  0  0  0  0  0  0  0  0  0  0
   10.0268   10.3105  -23.3832 C   0  0  0  0  0  0  0  0  0  0  0  0
   11.1566    9.7404  -22.5964 C   0  0  0  0  0  0  0  0  0  0  0  0
    7.9608   11.3543  -24.8240 C   0  0  0  0  0  0  0  0  0  0  0  0
    9.2709   11.4836  -25.2818 C   0  0  0  0  0  0  0  0  0  0  0  0
    9.5457   12.1919  -26.5584 C   0  0  0  0  0  0  0  0  0  0  0  0
   10.3249   10.9606  -24.5632 C   0  0  0  0  0  0  0  0  0  0  0  0
   11.6372   11.0610  -24.9711 O   0  0  0  0  0  0  0  0  0  0  0  0
   12.4473   12.0070  -24.3735 C   0  0  0  0  0  0  0  0  0  0  0  0
   13.8253   11.9866  -24.4340 C   0  0  0  0  0  0  0  0  0  0  0  0
   11.7990   13.0249  -23.6784 C   0  0  0  0  0  0  0  0  0  0  0  0
   12.4808   14.0334  -23.0350 C   0  0  0  0  0  0  0  0  0  0  0  0
   11.7303   15.0997  -22.3045 C   0  0  1  0  0  0  0  0  0  0  0  0
   10.9940   15.9228  -23.3194 C   0  0  0  0  0  0  0  0  0  0  0  0
   10.8483   14.4897  -21.2549 C   0  0  0  0  0  0  0  0  0  0  0  0
   13.8606   14.0110  -23.0971 C   0  0  0  0  0  0  0  0  0  0  0  0
   14.4981   12.9985  -23.7882 C   0  0  0  0  0  0  0  0  0  0  0  0
   14.6019   15.0082  -22.4632 O   0  0  0  0  0  0  0  0  0  0  0  0
  1  2  2  0
  2  3  1  0
  3  4  1  0
  4  5  2  0
  2  6  1  0
  6  7  1  0
  4  8  1  0
  7  8  2  0
  6  9  1  0
  9 10  2  0
 10 11  1  0
 11 12  1  0
  9 13  1  0
 13 14  2  0
 14 15  1  0
 11 16  2  0
 14 16  1  0
 16 17  1  0
 17 18  1  0
 18 19  2  0
 18 20  1  0
 20 21  2  0
 21 22  1  0
 22 23  1  6
 22 24  1  0
 21 25  1  0
 19 26  1  0
 25 26  2  0
 25 27  1  0
M  END
$$$$
