1N46_PFA_A_462
     RDKit          3D

 27 29  0  0  0  0  0  0  0  0999 V2000
  -10.7507  -10.1903  -25.3620 O   0  0  0  0  0  0  0  0  0  0  0  0
   -9.7682   -9.6228  -24.8125 C   0  0  0  0  0  0  0  0  0  0  0  0
   -9.7453   -9.3298  -23.4980 N   0  0  0  0  0  0  0  0  0  0  0  0
   -8.6606   -8.7213  -22.9750 C   0  0  0  0  0  0  0  0  0  0  0  0
   -8.6200   -8.4352  -21.7306 O   0  0  0  0  0  0  0  0  0  0  0  0
   -8.7120   -9.3060  -25.5857 N   0  0  0  0  0  0  0  0  0  0  0  0
   -7.6269   -8.7005  -25.0776 N   0  0  0  0  0  0  0  0  0  0  0  0
   -7.5785   -8.3945  -23.7571 C   0  0  0  0  0  0  0  0  0  0  0  0
   -8.6583   -9.5814  -26.9813 C   0  0  0  0  0  0  0  0  0  0  0  0
   -7.5980  -10.3558  -27.4536 C   0  0  0  0  0  0  0  0  0  0  0  0
   -7.5328  -10.6308  -28.8029 C   0  0  0  0  0  0  0  0  0  0  0  0
   -6.4019  -11.4576  -29.3110 C   0  0  0  0  0  0  0  0  0  0  0  0
   -9.6026   -9.1180  -27.8751 C   0  0  0  0  0  0  0  0  0  0  0  0
   -9.5052   -9.4156  -29.2332 C   0  0  0  0  0  0  0  0  0  0  0  0
  -10.5308   -8.9084  -30.1808 C   0  0  0  0  0  0  0  0  0  0  0  0
   -8.4638  -10.1794  -29.7158 C   0  0  0  0  0  0  0  0  0  0  0  0
   -8.3213  -10.5020  -31.0479 O   0  0  0  0  0  0  0  0  0  0  0  0
   -7.3308   -9.8763  -31.7798 C   0  0  0  0  0  0  0  0  0  0  0  0
   -7.0990  -10.1139  -33.1187 C   0  0  0  0  0  0  0  0  0  0  0  0
   -6.5406   -8.9588  -31.0917 C   0  0  0  0  0  0  0  0  0  0  0  0
   -5.5176   -8.2626  -31.6955 C   0  0  0  0  0  0  0  0  0  0  0  0
   -4.7028   -7.2900  -30.9053 C   0  0  1  0  0  0  0  0  0  0  0  0
   -5.6481   -6.3934  -30.1622 C   0  0  0  0  0  0  0  0  0  0  0  0
   -3.7312   -8.0193  -30.0246 C   0  0  0  0  0  0  0  0  0  0  0  0
   -5.2873   -8.5022  -33.0363 C   0  0  0  0  0  0  0  0  0  0  0  0
   -6.0746   -9.4136  -33.7135 C   0  0  0  0  0  0  0  0  0  0  0  0
   -4.2636   -7.8245  -33.6984 O   0  0  0  0  0  0  0  0  0  0  0  0
  1  2  2  0
  2  3  1  0
  3  4  1  0
  4  5  2  0
  2  6  1  0
  6  7  1  0
  4  8  1  0
  7  8  2  0
  6  9  1  0
  9 10  2  0
 10 11  1  0
 11 12  1  0
  9 13  1  0
 13 14  2  0
 14 15  1  0
 11 16  2  0
 14 16  1  0
 16 17  1  0
 17 18  1  0
 18 19  2  0
 18 20  1  0
 20 21  2  0
 21 22  1  0
 22 23  1  1
 22 24  1  0
 21 25  1  0
 19 26  1  0
 25 26  2  0
 25 27  1  0
M  END
$$$$
