1N46_PFA_A_462
     RDKit          3D

 27 29  0  0  0  0  0  0  0  0999 V2000
  -10.2376  -16.1728   -0.5163 O   0  0  0  0  0  0  0  0  0  0  0  0
   -9.4958  -17.1903   -0.5785 C   0  0  0  0  0  0  0  0  0  0  0  0
   -9.7611  -18.3209    0.1038 N   0  0  0  0  0  0  0  0  0  0  0  0
   -8.9240  -19.3731   -0.0088 C   0  0  0  0  0  0  0  0  0  0  0  0
   -9.1586  -20.4540    0.6304 O   0  0  0  0  0  0  0  0  0  0  0  0
   -8.4023  -17.1242   -1.3619 N   0  0  0  0  0  0  0  0  0  0  0  0
   -7.5617  -18.1639   -1.4825 N   0  0  0  0  0  0  0  0  0  0  0  0
   -7.8060  -19.3139   -0.8061 C   0  0  0  0  0  0  0  0  0  0  0  0
   -8.0523  -15.9675   -2.1142 C   0  0  0  0  0  0  0  0  0  0  0  0
   -7.1068  -15.0969   -1.5710 C   0  0  0  0  0  0  0  0  0  0  0  0
   -6.7579  -13.9725   -2.2883 C   0  0  0  0  0  0  0  0  0  0  0  0
   -5.7484  -13.0404   -1.7113 C   0  0  0  0  0  0  0  0  0  0  0  0
   -8.6049  -15.6768   -3.3453 C   0  0  0  0  0  0  0  0  0  0  0  0
   -8.2284  -14.5304   -4.0428 C   0  0  0  0  0  0  0  0  0  0  0  0
   -8.8336  -14.2334   -5.3666 C   0  0  0  0  0  0  0  0  0  0  0  0
   -7.2956  -13.6601   -3.5200 C   0  0  0  0  0  0  0  0  0  0  0  0
   -6.8891  -12.5141   -4.1682 O   0  0  0  0  0  0  0  0  0  0  0  0
   -6.0650  -12.6322   -5.2706 C   0  0  0  0  0  0  0  0  0  0  0  0
   -6.2058  -11.8806   -6.4186 C   0  0  0  0  0  0  0  0  0  0  0  0
   -5.0441  -13.5752   -5.1803 C   0  0  0  0  0  0  0  0  0  0  0  0
   -4.1495  -13.7987   -6.2028 C   0  0  0  0  0  0  0  0  0  0  0  0
   -3.0738  -14.8249   -6.0482 C   0  0  1  0  0  0  0  0  0  0  0  0
   -2.2043  -14.4116   -4.8980 C   0  0  0  0  0  0  0  0  0  0  0  0
   -3.6753  -16.1916   -5.9005 C   0  0  0  0  0  0  0  0  0  0  0  0
   -4.2924  -13.0449   -7.3515 C   0  0  0  0  0  0  0  0  0  0  0  0
   -5.3072  -12.1109   -7.4351 C   0  0  0  0  0  0  0  0  0  0  0  0
   -3.4138  -13.2299   -8.4190 O   0  0  0  0  0  0  0  0  0  0  0  0
  1  2  2  0
  2  3  1  0
  3  4  1  0
  4  5  2  0
  2  6  1  0
  6  7  1  0
  4  8  1  0
  7  8  2  0
  6  9  1  0
  9 10  2  0
 10 11  1  0
 11 12  1  0
  9 13  1  0
 13 14  2  0
 14 15  1  0
 11 16  2  0
 14 16  1  0
 16 17  1  0
 17 18  1  0
 18 19  2  0
 18 20  1  0
 20 21  2  0
 21 22  1  0
 22 23  1  1
 22 24  1  0
 21 25  1  0
 19 26  1  0
 25 26  2  0
 25 27  1  0
M  END
$$$$
