7M31_TDR_C_1108
     RDKit          3D

 15 15  0  0  0  0  0  0  0  0999 V2000
   -0.5715   -1.2775    0.2419 N   0  0  0  0  0  0  0  0  0  0  0  0
   -0.0968   -1.0740    1.5003 C   0  0  0  0  0  0  0  0  0  0  0  0
   -0.4814   -1.8142    2.4451 O   0  0  0  0  0  0  0  0  0  0  0  0
    0.7937   -0.0734    1.7401 N   0  0  0  0  0  0  0  0  0  0  0  0
    1.2222    0.7377    0.7347 C   0  0  0  0  0  0  0  0  0  0  0  0
    2.0524    1.6542    0.9827 O   0  0  0  0  0  0  0  0  0  0  0  0
    0.7397    0.5503   -0.5701 C   0  0  0  0  0  0  0  0  0  0  0  0
    1.2046    1.4187   -1.7055 C   0  0  0  0  0  0  0  0  0  0  0  0
   -0.1699   -0.4907   -0.7906 C   0  0  0  0  0  0  0  0  0  0  0  0
   -1.2532   -2.0485    0.0599 H   0  0  0  0  0  0  0  0  0  0  0  0
    1.1550    0.0733    2.7106 H   0  0  0  0  0  0  0  0  0  0  0  0
    0.6324    1.2127   -2.6351 H   0  0  0  0  0  0  0  0  0  0  0  0
    1.0659    2.4888   -1.4435 H   0  0  0  0  0  0  0  0  0  0  0  0
    2.2806    1.2283   -1.9020 H   0  0  0  0  0  0  0  0  0  0  0  0
   -0.5599   -0.6763   -1.7841 H   0  0  0  0  0  0  0  0  0  0  0  0
  1  2  1  0
  2  3  2  0
  2  4  1  0
  4  5  1  0
  5  6  2  0
  5  7  1  0
  7  8  1  0
  1  9  1  0
  7  9  2  0
  1 10  1  0
  4 11  1  0
  8 12  1  0
  8 13  1  0
  8 14  1  0
  9 15  1  0
M  END
