7TOM_5AD_A_605
     RDKit          3D

 18 20  0  0  0  0  0  0  0  0999 V2000
   14.5174   55.8518   29.3430 N   0  0  0  0  0  0  0  0  0  0  0  0
   14.7322   57.1588   29.5548 C   0  0  0  0  0  0  0  0  0  0  0  0
   14.5773   57.8660   30.6854 N   0  0  0  0  0  0  0  0  0  0  0  0
   14.1707   57.0751   31.6984 C   0  0  0  0  0  0  0  0  0  0  0  0
   13.9684   57.4297   33.0138 N   0  0  0  0  0  0  0  0  0  0  0  0
   13.5948   56.2789   33.6562 C   0  0  0  0  0  0  0  0  0  0  0  0
   13.5344   55.2257   32.8762 N   0  0  0  0  0  0  0  0  0  0  0  0
   13.9029   55.7163   31.6296 C   0  0  0  0  0  0  0  0  0  0  0  0
   14.0849   55.0882   30.3764 C   0  0  0  0  0  0  0  0  0  0  0  0
   13.8583   53.7807   30.1617 N   0  0  0  0  0  0  0  0  0  0  0  0
   14.1106   58.7585   33.6115 C   0  0  1  0  0  0  0  0  0  0  0  0
   13.4939   58.9008   35.0053 C   0  0  1  0  0  0  0  0  0  0  0  0
   14.2559   60.1237   35.5477 C   0  0  1  0  0  0  0  0  0  0  0  0
   15.5695   60.1301   34.7435 C   0  0  1  0  0  0  0  0  0  0  0  0
   16.8357   60.0137   35.5732 C   0  0  0  0  0  0  0  0  0  0  0  0
   15.4809   59.0260   33.8100 O   0  0  0  0  0  0  0  0  0  0  0  0
   12.0835   59.0751   34.9220 O   0  0  0  0  0  0  0  0  0  0  0  0
   13.5917   61.3565   35.3200 O   0  0  0  0  0  0  0  0  0  0  0  0
  1  2  2  0
  2  3  1  0
  3  4  2  0
  4  5  1  0
  5  6  1  0
  6  7  2  0
  4  8  1  0
  7  8  1  0
  1  9  1  0
  8  9  2  0
  9 10  1  0
 11  5  1  1
 11 12  1  0
 12 13  1  0
 13 14  1  0
 14 15  1  1
 11 16  1  0
 14 16  1  0
 12 17  1  6
 13 18  1  6
M  END
