7S45_ACO_A_202
     RDKit          3D

 51 53  0  0  0  0  0  0  0  0999 V2000
  -36.3005  -47.9251   20.9241 N   0  0  0  0  0  0  0  0  0  0  0  0
  -35.4253  -48.7749   20.3119 C   0  0  0  0  0  0  0  0  0  0  0  0
  -34.8383  -48.4377   19.1381 N   0  0  0  0  0  0  0  0  0  0  0  0
  -35.1188  -47.2606   18.5726 C   0  0  0  0  0  0  0  0  0  0  0  0
  -36.0119  -46.3798   19.1855 C   0  0  0  0  0  0  0  0  0  0  0  0
  -36.6173  -46.7216   20.3917 C   0  0  0  0  0  0  0  0  0  0  0  0
  -37.5272  -45.8198   21.0113 N   0  0  0  0  0  0  0  0  0  0  0  0
  -36.1147  -45.2891   18.4251 N   0  0  0  0  0  0  0  0  0  0  0  0
  -35.3207  -45.4318   17.3430 C   0  0  0  0  0  0  0  0  0  0  0  0
  -34.7217  -46.6350   17.4462 N   0  0  0  0  0  0  0  0  0  0  0  0
  -33.7956  -47.1366   16.4594 C   0  0  1  0  0  0  0  0  0  0  0  0
  -34.5056  -47.6040   15.2037 C   0  0  2  0  0  0  0  0  0  0  0  0
  -35.1817  -48.7908   15.3812 O   0  0  0  0  0  0  0  0  0  0  0  0
  -33.3479  -47.6815   14.2487 C   0  0  2  0  0  0  0  0  0  0  0  0
  -32.9999  -48.9041   13.8333 O   0  0  0  0  0  0  0  0  0  0  0  0
  -32.6142  -49.1448   12.2496 P   0  0  2  0  0  0  0  0  0  0  0  0
  -33.9165  -48.9944   11.4454 O   0  0  0  0  0  0  0  0  0  0  0  0
  -32.0354  -50.6675   11.8885 O   0  0  0  0  0  0  0  0  0  0  0  0
  -31.5604  -47.9962   11.5888 O   0  0  0  0  0  0  0  0  0  0  0  0
  -32.3101  -46.8561   14.9189 C   0  0  2  0  0  0  0  0  0  0  0  0
  -32.9566  -46.1527   15.9348 O   0  0  0  0  0  0  0  0  0  0  0  0
  -31.6511  -45.8906   13.9529 C   0  0  0  0  0  0  0  0  0  0  0  0
  -32.5493  -45.0061   13.4090 O   0  0  0  0  0  0  0  0  0  0  0  0
  -32.8273  -43.6276   14.3085 P   0  0  2  0  0  0  0  0  0  0  0  0
  -33.0055  -43.9793   15.7599 O   0  0  0  0  0  0  0  0  0  0  0  0
  -34.2994  -42.9055   13.8179 O   0  0  0  0  0  0  0  0  0  0  0  0
  -31.5819  -42.4938   14.1201 O   0  0  0  0  0  0  0  0  0  0  0  0
  -32.0847  -40.9661   14.6942 P   0  0  2  0  0  0  0  0  0  0  0  0
  -33.4826  -41.0399   15.2627 O   0  0  0  0  0  0  0  0  0  0  0  0
  -32.1003  -39.8698   13.4032 O   0  0  0  0  0  0  0  0  0  0  0  0
  -30.9924  -40.4287   15.8597 O   0  0  0  0  0  0  0  0  0  0  0  0
  -31.0918  -38.2711   16.9635 C   0  0  1  0  0  0  0  0  0  0  0  0
  -31.6095  -39.6565   16.8060 C   0  0  0  0  0  0  0  0  0  0  0  0
  -30.1159  -38.3034   18.1556 C   0  0  0  0  0  0  0  0  0  0  0  0
  -30.2865  -37.9127   15.7180 C   0  0  0  0  0  0  0  0  0  0  0  0
  -32.1115  -37.2436   17.3071 C   0  0  1  0  0  0  0  0  0  0  0  0
  -32.9547  -37.8692   18.2707 O   0  0  0  0  0  0  0  0  0  0  0  0
  -31.6196  -35.9612   17.8172 C   0  0  0  0  0  0  0  0  0  0  0  0
  -30.8344  -35.8195   18.7915 O   0  0  0  0  0  0  0  0  0  0  0  0
  -32.0495  -34.7694   17.1748 N   0  0  0  0  0  0  0  0  0  0  0  0
  -31.4246  -33.4811   17.3102 C   0  0  0  0  0  0  0  0  0  0  0  0
  -30.8849  -33.0505   15.9720 C   0  0  0  0  0  0  0  0  0  0  0  0
  -29.8825  -31.9416   16.0840 C   0  0  0  0  0  0  0  0  0  0  0  0
  -28.7969  -32.1044   16.6940 O   0  0  0  0  0  0  0  0  0  0  0  0
  -30.2382  -30.7092   15.4612 N   0  0  0  0  0  0  0  0  0  0  0  0
  -29.3728  -29.5644   15.5538 C   0  0  0  0  0  0  0  0  0  0  0  0
  -29.9458  -28.3276   14.9000 C   0  0  0  0  0  0  0  0  0  0  0  0
  -31.4144  -27.8254   15.8698 S   0  0  0  0  0  0  0  0  0  0  0  0
  -32.1676  -26.4298   15.0391 C   0  0  0  0  0  0  0  0  0  0  0  0
  -31.6598  -25.8626   14.0919 O   0  0  0  0  0  0  0  0  0  0  0  0
  -33.4844  -25.9172   15.5136 C   0  0  0  0  0  0  0  0  0  0  0  0
  1  2  2  0
  2  3  1  0
  3  4  2  0
  4  5  1  0
  1  6  1  0
  5  6  2  0
  6  7  1  0
  5  8  1  0
  8  9  2  0
  4 10  1  0
  9 10  1  0
 11 10  1  1
 11 12  1  0
 12 13  1  1
 12 14  1  0
 14 15  1  1
 15 16  1  0
 16 17  2  0
 16 18  1  1
 16 19  1  0
 14 20  1  0
 11 21  1  0
 20 21  1  0
 20 22  1  6
 22 23  1  0
 23 24  1  0
 24 25  2  0
 24 26  1  6
 24 27  1  0
 27 28  1  0
 28 29  2  0
 28 30  1  6
 28 31  1  0
 31 33  1  0
 32 33  1  0
 32 34  1  1
 32 35  1  0
 32 36  1  0
 36 37  1  1
 36 38  1  0
 38 39  2  0
 38 40  1  0
 40 41  1  0
 41 42  1  0
 42 43  1  0
 43 44  2  0
 43 45  1  0
 45 46  1  0
 46 47  1  0
 47 48  1  0
 48 49  1  0
 49 50  2  0
 49 51  1  0
M  END
$$$$
