8FV9_80J_BBB_801
     RDKit          3D

 44 45  0  0  0  0  0  0  0  0999 V2000
   -1.7936    0.1132   -2.3691 C   0  0  2  0  0  0  0  0  0  0  0  0
    0.6382    0.3772   -2.8891 C   0  0  0  0  0  0  0  0  0  0  0  0
   -2.1142   -1.3321   -2.6990 C   0  0  1  0  0  0  0  0  0  0  0  0
   -2.7229   -1.8271   -1.4170 C   0  0  1  0  0  0  0  0  0  0  0  0
    1.3564    1.5620   -4.8134 C   0  0  0  0  0  0  0  0  0  0  0  0
   -2.0619   -0.9305   -0.3598 C   0  0  1  0  0  0  0  0  0  0  0  0
    0.0312    1.7835   -5.1780 C   0  0  0  0  0  0  0  0  0  0  0  0
   -0.9735   -1.6877    0.4118 C   0  0  0  0  0  0  0  0  0  0  0  0
   -0.9793    1.2970   -4.3500 C   0  0  0  0  0  0  0  0  0  0  0  0
   -2.9912   -1.4236   -3.7691 F   0  0  0  0  0  0  0  0  0  0  0  0
   -0.6802    0.6186   -3.2010 N   0  0  0  0  0  0  0  0  0  0  0  0
    1.6291    0.8605   -3.6846 N   0  0  0  0  0  0  0  0  0  0  0  0
    2.4249    2.0627   -5.6195 N   0  0  0  0  0  0  0  0  0  0  0  0
    2.1020   -1.6222    0.9938 O   0  0  0  0  0  0  0  0  0  0  0  0
   -0.6002    0.7101    3.8572 O   0  0  0  0  0  0  0  0  0  0  0  0
    0.1113   -2.2961    7.1765 O   0  0  0  0  0  0  0  0  0  0  0  0
    0.9513   -0.2915   -1.8693 O   0  0  0  0  0  0  0  0  0  0  0  0
    0.6064   -3.1861    2.4556 O   0  0  0  0  0  0  0  0  0  0  0  0
   -0.8324   -1.8305    4.4755 O   0  0  0  0  0  0  0  0  0  0  0  0
    2.2245   -2.4340    5.6272 O   0  0  0  0  0  0  0  0  0  0  0  0
   -4.1123   -1.6172   -1.4305 O   0  0  0  0  0  0  0  0  0  0  0  0
    1.5314   -0.7437    3.3870 O   0  0  0  0  0  0  0  0  0  0  0  0
    0.7469   -0.0588    5.9480 O   0  0  0  0  0  0  0  0  0  0  0  0
    2.2544   -1.0736    8.0249 O   0  0  0  0  0  0  0  0  0  0  0  0
   -1.4895    0.1990   -0.9941 O   0  0  0  0  0  0  0  0  0  0  0  0
   -0.3730   -0.8125    1.3381 O   0  0  0  0  0  0  0  0  0  0  0  0
    0.9857   -1.5938    2.0170 P   0  0  1  0  0  5  0  0  0  0  0  0
    0.1834   -0.4678    4.3950 P   0  0  1  0  0  5  0  0  0  0  0  0
    1.2971   -1.4895    6.6917 P   0  0  0  0  0  5  0  0  0  0  0  0
   -2.7065    0.7316   -2.5396 H   0  0  0  0  0  0  0  0  0  0  0  0
   -1.1857   -1.9045   -2.9221 H   0  0  0  0  0  0  0  0  0  0  0  0
   -2.4994   -2.9116   -1.2805 H   0  0  0  0  0  0  0  0  0  0  0  0
   -2.8214   -0.5792    0.3751 H   0  0  0  0  0  0  0  0  0  0  0  0
   -0.2155    2.3263   -6.0830 H   0  0  0  0  0  0  0  0  0  0  0  0
   -0.2298   -2.0831   -0.3215 H   0  0  0  0  0  0  0  0  0  0  0  0
   -1.4488   -2.5400    0.9504 H   0  0  0  0  0  0  0  0  0  0  0  0
   -2.0109    1.4731   -4.6366 H   0  0  0  0  0  0  0  0  0  0  0  0
    2.2295    2.6129   -6.4859 H   0  0  0  0  0  0  0  0  0  0  0  0
    3.4162    1.9327   -5.3138 H   0  0  0  0  0  0  0  0  0  0  0  0
    1.4079   -3.5174    2.9320 H   0  0  0  0  0  0  0  0  0  0  0  0
   -1.6286   -1.5980    3.9329 H   0  0  0  0  0  0  0  0  0  0  0  0
    3.0366   -1.8938    5.4492 H   0  0  0  0  0  0  0  0  0  0  0  0
   -4.4829   -2.1486   -0.6754 H   0  0  0  0  0  0  0  0  0  0  0  0
    2.9637   -0.4937    7.6503 H   0  0  0  0  0  0  0  0  0  0  0  0
  1  3  1  0
  3  4  1  0
  4  6  1  0
  5  7  1  0
  6  8  1  0
  7  9  2  0
  3 10  1  0
  9 11  1  0
  2 11  1  0
  1 11  1  0
  5 12  2  0
  2 12  1  0
  5 13  1  0
  2 17  2  0
  4 21  1  0
  1 25  1  0
  6 25  1  0
  8 26  1  0
 14 27  2  0
 27 22  1  1
 26 27  1  0
 27 18  1  0
 28 23  1  1
 15 28  2  0
 28 19  1  0
 22 28  1  0
 16 29  2  0
 24 29  1  0
 23 29  1  0
 20 29  1  0
  1 30  1  1
  3 31  1  6
  4 32  1  1
  6 33  1  1
  7 34  1  0
  8 35  1  0
  8 36  1  0
  9 37  1  0
 13 38  1  0
 13 39  1  0
 18 40  1  0
 19 41  1  0
 20 42  1  0
 21 43  1  0
 24 44  1  0
M  END
