7R7R_AWJ_A_1501
     RDKit          3D

 33 36  0  0  0  0  0  0  0  0999 V2000
   29.9180   44.7420    9.2870 C   0  0  0  0  0  0  0  0  0  0  0  0
   28.8360   44.4790   10.1200 C   0  0  0  0  0  0  0  0  0  0  0  0
   27.8000   45.3450   10.2590 N   0  0  0  0  0  0  0  0  0  0  0  0
   27.8580   46.5010    9.5560 C   0  0  0  0  0  0  0  0  0  0  0  0
   28.8940   46.8650    8.7110 C   0  0  0  0  0  0  0  0  0  0  0  0
   29.9320   45.9480    8.5750 C   0  0  0  0  0  0  0  0  0  0  0  0
   30.9180   43.7720    9.2450 O   0  0  0  0  0  0  0  0  0  0  0  0
   28.8100   43.2680   10.8490 N   0  0  0  0  0  0  0  0  0  0  0  0
   31.9770   44.0020    8.3110 C   0  0  1  0  0  0  0  0  0  0  0  0
   32.9690   44.9490    8.9160 C   0  0  0  0  0  0  0  0  0  0  0  0
   32.6300   42.6610    8.0470 C   0  0  0  0  0  0  0  0  0  0  0  0
   33.5410   46.0010    8.1740 C   0  0  0  0  0  0  0  0  0  0  0  0
   34.4410   46.8740    8.7980 C   0  0  0  0  0  0  0  0  0  0  0  0
   34.7380   46.7210   10.1560 C   0  0  0  0  0  0  0  0  0  0  0  0
   34.1750   45.6750   10.8830 C   0  0  0  0  0  0  0  0  0  0  0  0
   33.2950   44.7810   10.2670 C   0  0  0  0  0  0  0  0  0  0  0  0
   34.4810   45.5270   12.1800 F   0  0  0  0  0  0  0  0  0  0  0  0
   33.2420   46.2580    6.8190 N   0  0  0  0  0  0  0  0  0  0  0  0
   32.8900   47.5030    6.4350 N   0  0  0  0  0  0  0  0  0  0  0  0
   33.1020   47.4810    5.1150 C   0  0  0  0  0  0  0  0  0  0  0  0
   33.5890   46.2220    4.7470 C   0  0  0  0  0  0  0  0  0  0  0  0
   33.6970   45.4570    5.8400 N   0  0  0  0  0  0  0  0  0  0  0  0
   28.9150   48.1510    8.0160 C   0  0  0  0  0  0  0  0  0  0  0  0
   27.9100   48.9780    7.5460 C   0  0  0  0  0  0  0  0  0  0  0  0
   28.3500   50.1190    6.8940 N   0  0  0  0  0  0  0  0  0  0  0  0
   29.6640   50.1900    6.8680 C   0  0  0  0  0  0  0  0  0  0  0  0
   30.4330   48.8780    7.6680 S   0  0  0  0  0  0  0  0  0  0  0  0
   26.4520   48.7660    7.6320 C   0  0  0  0  0  0  0  0  0  0  0  0
   30.4480   51.2670    6.2120 C   0  0  1  0  0  0  0  0  0  0  0  0
   29.9830   52.6370    6.6520 C   0  0  0  0  0  0  0  0  0  0  0  0
   31.8540   51.1530    6.4430 O   0  0  0  0  0  0  0  0  0  0  0  0
   30.2690   51.1450    4.7120 C   0  0  0  0  0  0  0  0  0  0  0  0
   30.1830   52.8160    8.0490 O   0  0  0  0  0  0  0  0  0  0  0  0
  1  2  2  0
  2  3  1  0
  3  4  2  0
  4  5  1  0
  1  6  1  0
  5  6  2  0
  1  7  1  0
  2  8  1  0
  7  9  1  0
  9 10  1  0
  9 11  1  1
 10 12  1  0
 12 13  2  0
 13 14  1  0
 14 15  2  0
 10 16  2  0
 15 16  1  0
 15 17  1  0
 12 18  1  0
 18 19  1  0
 19 20  1  0
 20 21  2  0
 18 22  1  0
 21 22  1  0
  5 23  1  0
 23 24  2  0
 24 25  1  0
 25 26  2  0
 23 27  1  0
 26 27  1  0
 24 28  1  0
 26 29  1  0
 29 30  1  0
 29 31  1  0
 29 32  1  6
 30 33  1  0
M  END
$$$$
