7TXP_0FX_A_301
     RDKit          3D

 35 37  0  0  0  0  0  0  0  0999 V2000
  -12.5040  -17.9020   26.0940 O   0  0  0  0  0  0  0  0  0  0  0  0
  -11.9480  -17.8340   27.4780 P   0  0  1  0  0  0  0  0  0  0  0  0
  -10.6920  -18.6070   27.7210 O   0  0  0  0  0  0  0  0  0  0  0  0
  -11.8190  -16.2810   27.8750 O   0  0  0  0  0  0  0  0  0  0  0  0
  -10.9780  -15.9030   28.9110 C   0  0  2  0  0  0  0  0  0  0  0  0
  -11.5470  -14.6800   29.5670 C   0  0  2  0  0  0  0  0  0  0  0  0
  -12.8720  -14.9020   30.0620 O   0  0  0  0  0  0  0  0  0  0  0  0
  -11.5740  -13.5080   28.5950 C   0  0  1  0  0  0  0  0  0  0  0  0
  -12.0080  -12.3070   29.2260 O   0  0  0  0  0  0  0  0  0  0  0  0
  -10.1900  -13.2970   28.0000 C   0  0  2  0  0  0  0  0  0  0  0  0
  -10.2760  -12.2390   26.9870 N   0  0  0  0  0  0  0  0  0  0  0  0
   -9.6160  -14.5900   27.4080 C   0  0  1  0  0  0  0  0  0  0  0  0
   -8.1490  -14.5210   27.0170 C   0  0  0  0  0  0  0  0  0  0  0  0
   -9.6890  -15.6410   28.3830 O   0  0  0  0  0  0  0  0  0  0  0  0
  -13.0420  -18.3490   28.5250 O   0  0  0  0  0  0  0  0  0  0  0  0
  -14.5980  -18.6710   28.3730 P   0  0  2  0  0  0  0  0  0  0  0  0
  -15.2900  -17.4800   27.8100 O   0  0  0  0  0  0  0  0  0  0  0  0
  -15.1050  -19.2110   29.6710 O   0  0  0  0  0  0  0  0  0  0  0  0
  -14.6670  -19.7720   27.2500 O   0  0  0  0  0  0  0  0  0  0  0  0
  -14.0030  -21.0300   27.3500 C   0  0  0  0  0  0  0  0  0  0  0  0
  -14.7820  -21.9580   26.4580 C   0  0  1  0  0  0  0  0  0  0  0  0
  -14.0080  -23.1730   26.3100 O   0  0  0  0  0  0  0  0  0  0  0  0
  -16.1500  -22.3150   27.0510 C   0  0  1  0  0  0  0  0  0  0  0  0
  -17.2140  -22.2800   26.1110 O   0  0  0  0  0  0  0  0  0  0  0  0
  -15.9220  -23.7410   27.5280 C   0  0  0  0  0  0  0  0  0  0  0  0
  -14.8710  -24.2760   26.5690 C   0  0  2  0  0  0  0  0  0  0  0  0
  -14.0220  -25.3620   27.0910 N   0  0  0  0  0  0  0  0  0  0  0  0
  -13.1640  -25.1040   28.1330 C   0  0  0  0  0  0  0  0  0  0  0  0
  -12.3890  -26.0510   28.6970 C   0  0  0  0  0  0  0  0  0  0  0  0
  -11.4430  -25.7550   29.8110 C   0  0  0  0  0  0  0  0  0  0  0  0
  -14.1230  -26.6160   26.5380 C   0  0  0  0  0  0  0  0  0  0  0  0
  -14.8710  -26.8790   25.6190 O   0  0  0  0  0  0  0  0  0  0  0  0
  -13.3460  -27.5740   27.1320 N   0  0  0  0  0  0  0  0  0  0  0  0
  -12.4480  -27.3920   28.1560 C   0  0  0  0  0  0  0  0  0  0  0  0
  -11.8010  -28.3770   28.5540 O   0  0  0  0  0  0  0  0  0  0  0  0
  2  1  1  6
  2  3  2  0
  2  4  1  0
  5  4  1  6
  5  6  1  0
  6  7  1  6
  6  8  1  0
  8  9  1  1
  8 10  1  0
 10 11  1  6
 10 12  1  0
 12 13  1  1
 12 14  1  0
  5 14  1  0
  2 15  1  0
 15 16  1  0
 16 17  1  6
 16 18  2  0
 16 19  1  0
 19 20  1  0
 21 20  1  1
 21 22  1  0
 21 23  1  0
 23 24  1  6
 23 25  1  0
 25 26  1  0
 22 26  1  0
 26 27  1  1
 27 28  1  0
 28 29  2  0
 29 30  1  0
 27 31  1  0
 31 32  2  0
 31 33  1  0
 33 34  1  0
 29 34  1  0
 34 35  2  0
M  END
$$$$
