7JXX_VP7_A_401
     RDKit          3D

 45 48  0  0  0  0  0  0  0  0999 V2000
  175.1112   21.8127   48.6480 N   0  0  0  0  0  0  0  0  0  0  0  0
  177.1054   20.8178   47.9133 N   0  0  0  0  0  0  0  0  0  0  0  0
  176.4657   21.7708   48.6364 C   0  0  0  0  0  0  0  0  0  0  0  0
  176.4335   19.8864   47.1828 C   0  0  0  0  0  0  0  0  0  0  0  0
  177.2313   18.8923   46.4087 C   0  0  0  0  0  0  0  0  0  0  0  0
  178.5408   19.0769   45.9652 C   0  0  0  0  0  0  0  0  0  0  0  0
  179.3973   20.1846   46.0209 C   0  0  0  0  0  0  0  0  0  0  0  0
  181.5896   21.1793   45.4979 C   0  0  0  0  0  0  0  0  0  0  0  0
  184.5831   22.8181   46.2482 C   0  0  2  0  0  0  0  0  0  0  0  0
  181.0789   18.8564   44.8396 C   0  0  0  0  0  0  0  0  0  0  0  0
  178.9326   17.9153   45.3523 C   0  0  0  0  0  0  0  0  0  0  0  0
  174.5212   17.4903   46.9880 C   0  0  1  0  0  0  0  0  0  0  0  0
  174.1954   18.8912   46.4667 C   0  0  2  0  0  0  0  0  0  0  0  0
  182.3483   22.1156   45.5363 C   0  0  0  0  0  0  0  0  0  0  0  0
  183.2750   23.2633   45.5852 C   0  0  1  0  0  0  0  0  0  0  0  0
  182.6407   24.4060   46.3955 C   0  0  2  0  0  0  0  0  0  0  0  0
  180.1950   17.7670   44.7801 C   0  0  0  0  0  0  0  0  0  0  0  0
  176.9031   17.5759   46.0119 C   0  0  0  0  0  0  0  0  0  0  0  0
  175.6083   16.8155   46.1571 C   0  0  1  0  0  0  0  0  0  0  0  0
  175.0220   19.9119   47.1938 C   0  0  0  0  0  0  0  0  0  0  0  0
  174.3829   20.9090   47.9474 C   0  0  0  0  0  0  0  0  0  0  0  0
  180.6819   20.0642   45.4550 C   0  0  0  0  0  0  0  0  0  0  0  0
  177.2173   22.7273   49.3797 N   0  0  0  0  0  0  0  0  0  0  0  0
  177.9512   17.0052   45.3738 N   0  0  0  0  0  0  0  0  0  0  0  0
  183.5629   23.6972   44.2781 O   0  0  0  0  0  0  0  0  0  0  0  0
  179.0892   21.1202   46.4653 H   0  0  0  0  0  0  0  0  0  0  0  0
  185.4551   23.2572   45.7162 H   0  0  0  0  0  0  0  0  0  0  0  0
  184.6787   21.7103   46.2317 H   0  0  0  0  0  0  0  0  0  0  0  0
  184.6147   23.1605   47.3050 H   0  0  0  0  0  0  0  0  0  0  0  0
  182.0655   18.7640   44.4017 H   0  0  0  0  0  0  0  0  0  0  0  0
  174.8189   17.5129   48.0606 H   0  0  0  0  0  0  0  0  0  0  0  0
  173.6055   16.8627   46.9223 H   0  0  0  0  0  0  0  0  0  0  0  0
  173.1116   19.0837   46.6273 H   0  0  0  0  0  0  0  0  0  0  0  0
  174.3737   18.9732   45.3720 H   0  0  0  0  0  0  0  0  0  0  0  0
  181.7372   24.7965   45.8790 H   0  0  0  0  0  0  0  0  0  0  0  0
  183.3637   25.2418   46.5110 H   0  0  0  0  0  0  0  0  0  0  0  0
  182.3412   24.0529   47.4066 H   0  0  0  0  0  0  0  0  0  0  0  0
  180.4858   16.8414   44.3003 H   0  0  0  0  0  0  0  0  0  0  0  0
  175.8329   15.8283   46.6150 H   0  0  0  0  0  0  0  0  0  0  0  0
  175.2088   16.6182   45.1385 H   0  0  0  0  0  0  0  0  0  0  0  0
  173.3026   20.9655   47.9864 H   0  0  0  0  0  0  0  0  0  0  0  0
  177.3295   22.6247   50.4127 H   0  0  0  0  0  0  0  0  0  0  0  0
  177.6612   23.5402   48.8975 H   0  0  0  0  0  0  0  0  0  0  0  0
  177.9846   16.0449   44.9633 H   0  0  0  0  0  0  0  0  0  0  0  0
  184.4903   24.0550   44.2697 H   0  0  0  0  0  0  0  0  0  0  0  0
  2  3  1  0
  1  3  2  0
  2  4  2  0
  4  5  1  0
  5  6  1  0
  6  7  2  0
  6 11  1  0
 12 13  1  0
  8 14  3  0
  9 15  1  0
 15 14  1  6
 15 16  1  0
 10 17  1  0
 11 17  2  0
  5 18  2  0
 18 19  1  0
 12 19  1  0
  4 20  1  0
 13 20  1  0
  1 21  1  0
 20 21  2  0
  8 22  1  0
 10 22  2  0
  7 22  1  0
  3 23  1  0
 11 24  1  0
 18 24  1  0
 15 25  1  0
  7 26  1  0
  9 27  1  6
  9 28  1  0
  9 29  1  0
 10 30  1  0
 12 31  1  1
 12 32  1  0
 13 33  1  6
 13 34  1  0
 16 35  1  6
 16 36  1  0
 16 37  1  0
 17 38  1  0
 19 39  1  1
 19 40  1  0
 21 41  1  0
 23 42  1  0
 23 43  1  0
 24 44  1  0
 25 45  1  0
M  END
