1HQ2_PH2_A_181
     RDKit          3D

 14 15  0  0  0  0  0  0  0  0999 V2000
   -8.2696    0.6681   19.2529 N   0  0  0  0  0  0  0  0  0  0  0  0
   -9.4934    0.3902   19.5424 C   0  0  0  0  0  0  0  0  0  0  0  0
  -10.4248   -0.0450   18.3013 C   0  0  0  0  0  0  0  0  0  0  0  0
   -9.8447   -0.0777   17.0849 N   0  0  0  0  0  0  0  0  0  0  0  0
   -8.0429    0.1837   15.6865 N   0  0  0  0  0  0  0  0  0  0  0  0
   -6.7251    0.4838   15.3717 C   0  0  0  0  0  0  0  0  0  0  0  0
   -6.2915    0.4235   14.2283 N   0  0  0  0  0  0  0  0  0  0  0  0
   -5.9796    0.8463   16.4582 N   0  0  0  0  0  0  0  0  0  0  0  0
   -6.3425    0.9407   17.7033 C   0  0  0  0  0  0  0  0  0  0  0  0
   -5.6080    1.2764   18.6339 O   0  0  0  0  0  0  0  0  0  0  0  0
   -7.7021    0.6149   17.9158 C   0  0  0  0  0  0  0  0  0  0  0  0
   -8.5141    0.2373   16.8518 C   0  0  0  0  0  0  0  0  0  0  0  0
  -10.1463    0.4145   20.8337 C   0  0  0  0  0  0  0  0  0  0  0  0
   -9.2884    0.9495   21.8297 O   0  0  0  0  0  0  0  0  0  0  0  0
  1  2  2  0
  2  3  1  0
  3  4  1  0
  5  6  2  0
  6  7  1  0
  6  8  1  0
  8  9  1  0
  9 10  2  0
  1 11  1  0
  9 11  1  0
  4 12  1  0
  5 12  1  0
 11 12  2  0
  2 13  1  0
 13 14  1  0
M  END
