7NSW_HC4_BBB_401
     RDKit          3D

 20 20  0  0  0  0  0  0  0  0999 V2000
   62.9561   42.0151   29.2285 C   0  0  0  0  0  0  0  0  0  0  0  0
   62.0817   41.2799   28.7733 O   0  0  0  0  0  0  0  0  0  0  0  0
   63.1454   42.1755   30.4462 O   0  0  0  0  0  0  0  0  0  0  0  0
   63.8165   42.7740   28.2504 C   0  0  0  0  0  0  0  0  0  0  0  0
   63.5256   44.0100   27.8154 C   0  0  0  0  0  0  0  0  0  0  0  0
   64.1044   44.7515   26.6926 C   0  0  0  0  0  0  0  0  0  0  0  0
   64.2883   44.1376   25.4453 C   0  0  0  0  0  0  0  0  0  0  0  0
   64.9055   44.7931   24.3935 C   0  0  0  0  0  0  0  0  0  0  0  0
   65.3414   46.1039   24.5540 C   0  0  0  0  0  0  0  0  0  0  0  0
   65.1488   46.7440   25.7679 C   0  0  0  0  0  0  0  0  0  0  0  0
   64.5775   46.0616   26.8299 C   0  0  0  0  0  0  0  0  0  0  0  0
   65.9304   46.7768   23.5306 O   0  0  0  0  0  0  0  0  0  0  0  0
   63.8256   42.7474   30.7433 H   0  0  0  0  0  0  0  0  0  0  0  0
   64.6732   42.3197   27.8972 H   0  0  0  0  0  0  0  0  0  0  0  0
   62.7925   44.5068   28.3454 H   0  0  0  0  0  0  0  0  0  0  0  0
   63.9544   43.1709   25.3075 H   0  0  0  0  0  0  0  0  0  0  0  0
   65.0419   44.3099   23.4919 H   0  0  0  0  0  0  0  0  0  0  0  0
   65.4312   47.7301   25.8809 H   0  0  0  0  0  0  0  0  0  0  0  0
   64.4987   46.5312   27.7454 H   0  0  0  0  0  0  0  0  0  0  0  0
   66.0646   46.3520   22.7064 H   0  0  0  0  0  0  0  0  0  0  0  0
  1  2  2  0
  1  3  1  0
  1  4  1  0
  4  5  2  3
  5  6  1  0
  6  7  4  0
  7  8  4  0
  8  9  4  0
  9 10  4  0
  6 11  4  0
 10 11  4  0
  9 12  1  0
  3 13  1  0
  4 14  1  0
  5 15  1  0
  7 16  1  0
  8 17  1  0
 10 18  1  0
 11 19  1  0
 12 20  1  0
M  END
