7EBG_J0L_A_502
     RDKit          3D

 28 29  0  0  0  0  0  0  0  0999 V2000
   -1.5247   -1.3917   -1.6337 C   0  0  0  0  0  0  0  0  0  0  0  0
   -2.0170   -1.5398   -0.3243 C   0  0  0  0  0  0  0  0  0  0  0  0
   -1.3840   -0.9017    0.7499 C   0  0  0  0  0  0  0  0  0  0  0  0
   -0.3830   -0.5972   -1.8921 C   0  0  0  0  0  0  0  0  0  0  0  0
    0.2307    0.0307   -0.7935 C   0  0  0  0  0  0  0  0  0  0  0  0
   -0.2575   -0.1181    0.4934 C   0  0  0  0  0  0  0  0  0  0  0  0
    0.5787    0.6546    1.4795 C   0  0  0  0  0  0  0  0  0  0  0  0
    1.5938    1.2451    0.5361 C   0  0  0  0  0  0  0  0  0  0  0  0
    1.2492   -0.2789    2.4970 C   0  0  0  0  0  0  0  0  0  0  0  0
   -0.2411    1.7554    2.1668 C   0  0  0  0  0  0  0  0  0  0  0  0
   -0.4581   -1.0595   -4.4015 C   0  0  0  0  0  0  0  0  0  0  0  0
    0.1374   -0.4325   -3.2260 N   0  0  0  0  0  0  0  0  0  0  0  0
    1.3778    0.8670   -0.8181 N   0  0  0  0  0  0  0  0  0  0  0  0
    2.5413    1.9965    0.8895 O   0  0  0  0  0  0  0  0  0  0  0  0
   -2.0418   -1.9007   -2.4353 H   0  0  0  0  0  0  0  0  0  0  0  0
   -2.8917   -2.1514   -0.1448 H   0  0  0  0  0  0  0  0  0  0  0  0
   -1.7629   -1.0158    1.7571 H   0  0  0  0  0  0  0  0  0  0  0  0
    1.8325   -1.0706    1.9782 H   0  0  0  0  0  0  0  0  0  0  0  0
    0.4835   -0.7678    3.1366 H   0  0  0  0  0  0  0  0  0  0  0  0
    1.9392    0.2958    3.1514 H   0  0  0  0  0  0  0  0  0  0  0  0
   -1.0366    1.3072    2.7997 H   0  0  0  0  0  0  0  0  0  0  0  0
    0.4143    2.3774    2.8135 H   0  0  0  0  0  0  0  0  0  0  0  0
   -0.7215    2.4158    1.4123 H   0  0  0  0  0  0  0  0  0  0  0  0
   -1.5041   -0.7095   -4.5280 H   0  0  0  0  0  0  0  0  0  0  0  0
    0.1191   -0.7840   -5.3094 H   0  0  0  0  0  0  0  0  0  0  0  0
   -0.4384   -2.1642   -4.2919 H   0  0  0  0  0  0  0  0  0  0  0  0
    0.9813    0.1601   -3.3838 H   0  0  0  0  0  0  0  0  0  0  0  0
    1.9544    1.1564   -1.6378 H   0  0  0  0  0  0  0  0  0  0  0  0
  1  2  2  0
  2  3  1  0
  1  4  1  0
  4  5  2  0
  3  6  2  0
  5  6  1  0
  6  7  1  0
  7  8  1  0
  7  9  1  0
  7 10  1  0
 11 12  1  0
  4 12  1  0
  5 13  1  0
  8 13  1  0
  8 14  2  0
  1 15  1  0
  2 16  1  0
  3 17  1  0
  9 18  1  0
  9 19  1  0
  9 20  1  0
 10 21  1  0
 10 22  1  0
 10 23  1  0
 11 24  1  0
 11 25  1  0
 11 26  1  0
 12 27  1  0
 13 28  1  0
M  END
