7ODX_DGP_A_401
     RDKit          3D

 37 39  0  0  0  0  0  0  0  0999 V2000
  -34.8864   24.8338    7.6485 P   0  0  2  0  0  5  0  0  0  0  0  0
  -34.0365   23.8635    6.8576 O   0  0  0  0  0  0  0  0  0  0  0  0
  -36.2515   24.0241    8.2338 O   0  0  0  0  0  0  0  0  0  0  0  0
  -35.3846   26.0946    6.6359 O   0  0  0  0  0  0  0  0  0  0  0  0
  -34.0083   25.4681    8.9674 O   0  0  0  0  0  0  0  0  0  0  0  0
  -33.6775   26.8071    8.6819 C   0  0  2  0  0  0  0  0  0  0  0  0
  -33.6584   27.6143    9.9849 C   0  0  1  0  0  0  0  0  0  0  0  0
  -33.3236   26.7626   11.0626 O   0  0  0  0  0  0  0  0  0  0  0  0
  -32.6456   28.7676    9.9126 C   0  0  1  0  0  0  0  0  0  0  0  0
  -33.2025   29.9444   10.4397 O   0  0  0  0  0  0  0  0  0  0  0  0
  -31.5315   28.2954   10.8004 C   0  0  2  0  0  0  0  0  0  0  0  0
  -32.2433   27.3521   11.7479 C   0  0  2  0  0  0  0  0  0  0  0  0
  -31.3260   26.3264   12.2475 N   0  0  0  0  0  0  0  0  0  0  0  0
  -30.4192   26.4633   13.2495 C   0  0  0  0  0  0  0  0  0  0  0  0
  -29.6360   25.3632   13.4253 N   0  0  0  0  0  0  0  0  0  0  0  0
  -30.0870   24.5246   12.4736 C   0  0  0  0  0  0  0  0  0  0  0  0
  -29.6605   23.2443   12.1547 C   0  0  0  0  0  0  0  0  0  0  0  0
  -28.7289   22.6885   12.7957 O   0  0  0  0  0  0  0  0  0  0  0  0
  -30.2825   22.6006   11.1201 N   0  0  0  0  0  0  0  0  0  0  0  0
  -31.2980   23.2051   10.4149 C   0  0  0  0  0  0  0  0  0  0  0  0
  -31.9395   22.5108    9.3459 N   0  0  0  0  0  0  0  0  0  0  0  0
  -31.7044   24.4715   10.7378 N   0  0  0  0  0  0  0  0  0  0  0  0
  -31.0854   25.0986   11.7668 C   0  0  0  0  0  0  0  0  0  0  0  0
  -36.0236   23.0626    8.1641 H   0  0  0  0  0  0  0  0  0  0  0  0
  -34.5752   26.6520    6.5126 H   0  0  0  0  0  0  0  0  0  0  0  0
  -34.4291   27.2737    8.0029 H   0  0  0  0  0  0  0  0  0  0  0  0
  -32.6684   26.8567    8.2128 H   0  0  0  0  0  0  0  0  0  0  0  0
  -34.6830   28.0140   10.1561 H   0  0  0  0  0  0  0  0  0  0  0  0
  -32.2609   28.9559    8.8820 H   0  0  0  0  0  0  0  0  0  0  0  0
  -33.9344   30.2091    9.8233 H   0  0  0  0  0  0  0  0  0  0  0  0
  -31.0322   29.1283   11.3428 H   0  0  0  0  0  0  0  0  0  0  0  0
  -30.7801   27.7425   10.1926 H   0  0  0  0  0  0  0  0  0  0  0  0
  -32.6494   27.9302   12.6091 H   0  0  0  0  0  0  0  0  0  0  0  0
  -30.3167   27.3622   13.8436 H   0  0  0  0  0  0  0  0  0  0  0  0
  -29.9801   21.6334   10.8636 H   0  0  0  0  0  0  0  0  0  0  0  0
  -32.7859   22.9151    8.8896 H   0  0  0  0  0  0  0  0  0  0  0  0
  -31.5807   21.5870    9.0177 H   0  0  0  0  0  0  0  0  0  0  0  0
  1  2  2  0
  1  3  1  1
  1  4  1  0
  1  5  1  0
  5  6  1  0
  7  6  1  0
  7  8  1  0
  7  9  1  0
  9 10  1  0
  9 11  1  0
  8 12  1  0
 11 12  1  0
 12 13  1  0
 13 14  1  0
 14 15  2  0
 15 16  1  0
 16 17  1  0
 17 18  2  0
 17 19  1  0
 19 20  1  0
 20 21  1  0
 20 22  2  0
 13 23  1  0
 16 23  2  0
 22 23  1  0
  3 24  1  0
  4 25  1  0
  6 26  1  6
  6 27  1  0
  7 28  1  1
  9 29  1  6
 10 30  1  0
 11 31  1  1
 11 32  1  0
 12 33  1  1
 14 34  1  0
 19 35  1  0
 21 36  1  0
 21 37  1  0
M  END
