7NXO_UU8_B_401
     RDKit          3D

 50 53  0  0  0  0  0  0  0  0999 V2000
   29.1327    2.4875   14.0547 N   0  0  0  0  0  0  0  0  0  0  0  0
   29.0481    2.0910   15.3638 C   0  0  0  0  0  0  0  0  0  0  0  0
   29.4074    2.9673   16.3868 C   0  0  0  0  0  0  0  0  0  0  0  0
   29.8484    4.2472   16.0526 C   0  0  0  0  0  0  0  0  0  0  0  0
   29.9228    4.6121   14.7452 N   0  0  0  0  0  0  0  0  0  0  0  0
   29.5749    3.7499   13.7513 C   0  0  0  0  0  0  0  0  0  0  0  0
   27.5194    1.6784   12.3697 C   0  0  0  0  0  0  0  0  0  0  0  0
   27.1712    0.7870   11.3524 C   0  0  0  0  0  0  0  0  0  0  0  0
   29.3404   -0.3019   11.5549 C   0  0  0  0  0  0  0  0  0  0  0  0
   31.2004   -2.6883    9.4781 C   0  0  0  0  0  0  0  0  0  0  0  0
   31.9252   -1.8084    7.3461 C   0  0  0  0  0  0  0  0  0  0  0  0
   31.1043   -0.2909    9.0620 C   0  0  0  0  0  0  0  0  0  0  0  0
   30.8397    1.1216    9.5071 C   0  0  2  0  0  0  0  0  0  0  0  0
   31.6173   -0.5145    7.7724 C   0  0  0  0  0  0  0  0  0  0  0  0
   31.7273   -2.8925    8.2015 C   0  0  0  0  0  0  0  0  0  0  0  0
   30.8552   -1.4009    9.9085 C   0  0  0  0  0  0  0  0  0  0  0  0
   30.2959   -1.2629   11.1871 O   0  0  0  0  0  0  0  0  0  0  0  0
   29.6660    0.5775   12.5942 C   0  0  0  0  0  0  0  0  0  0  0  0
   28.0678   -0.2087   10.9421 C   0  0  0  0  0  0  0  0  0  0  0  0
   27.6381   -1.1477    9.9358 C   0  0  0  0  0  0  0  0  0  0  0  0
   27.2911   -1.9003    9.1279 N   0  0  0  0  0  0  0  0  0  0  0  0
   26.6310    2.6265   12.7610 F   0  0  0  0  0  0  0  0  0  0  0  0
   28.7685    1.5755   12.9994 C   0  0  0  0  0  0  0  0  0  0  0  0
   28.6380    0.9350   15.6618 O   0  0  0  0  0  0  0  0  0  0  0  0
   29.6743    4.1222   12.5489 O   0  0  0  0  0  0  0  0  0  0  0  0
   30.3271    5.3881   17.3058 S   0  0  2  0  0  6  0  0  0  0  0  0
   30.3041    4.7343   18.6596 O   0  0  0  0  0  0  0  0  0  0  0  0
   29.3577    6.5374   17.3073 O   0  0  0  0  0  0  0  0  0  0  0  0
   31.9615    5.9524   16.9737 C   0  0  0  0  0  0  0  0  0  0  0  0
   32.2098    6.8614   15.9334 C   0  0  0  0  0  0  0  0  0  0  0  0
   33.5150    7.2943   15.6770 C   0  0  0  0  0  0  0  0  0  0  0  0
   34.5760    6.8224   16.4566 C   0  0  0  0  0  0  0  0  0  0  0  0
   34.3330    5.9167   17.4937 C   0  0  0  0  0  0  0  0  0  0  0  0
   33.0291    5.4824   17.7526 C   0  0  0  0  0  0  0  0  0  0  0  0
   29.3414    2.6533   17.4213 H   0  0  0  0  0  0  0  0  0  0  0  0
   30.2599    5.5706   14.4976 H   0  0  0  0  0  0  0  0  0  0  0  0
   26.1934    0.8664   10.8916 H   0  0  0  0  0  0  0  0  0  0  0  0
   31.0358   -3.5373   10.1295 H   0  0  0  0  0  0  0  0  0  0  0  0
   32.3275   -1.9696    6.3542 H   0  0  0  0  0  0  0  0  0  0  0  0
   31.1081    1.2499   10.5767 H   0  0  0  0  0  0  0  0  0  0  0  0
   29.7687    1.3692    9.3570 H   0  0  0  0  0  0  0  0  0  0  0  0
   31.4515    1.8436    8.9251 H   0  0  0  0  0  0  0  0  0  0  0  0
   31.7938    0.3159    7.0995 H   0  0  0  0  0  0  0  0  0  0  0  0
   31.9756   -3.8934    7.8727 H   0  0  0  0  0  0  0  0  0  0  0  0
   30.6343    0.5006   13.0736 H   0  0  0  0  0  0  0  0  0  0  0  0
   31.3988    7.2346   15.3208 H   0  0  0  0  0  0  0  0  0  0  0  0
   33.7041    7.9953   14.8740 H   0  0  0  0  0  0  0  0  0  0  0  0
   35.5856    7.1581   16.2567 H   0  0  0  0  0  0  0  0  0  0  0  0
   35.1547    5.5512   18.0966 H   0  0  0  0  0  0  0  0  0  0  0  0
   32.8508    4.7793   18.5570 H   0  0  0  0  0  0  0  0  0  0  0  0
  1  2  1  0
  2  3  1  0
  3  4  2  0
  4  5  1  0
  1  6  1  0
  5  6  1  0
  7  8  2  0
 12 13  1  0
 12 14  1  0
 11 14  2  0
 11 15  1  0
 10 15  2  0
 12 16  2  0
 10 16  1  0
 16 17  1  0
  9 17  1  0
  9 18  1  0
  9 19  2  0
  8 19  1  0
 19 20  1  0
 20 21  3  0
  7 22  1  0
 18 23  2  0
  7 23  1  0
  1 23  1  0
  2 24  2  0
  6 25  2  0
 26  4  1  6
 26 27  2  0
 26 28  2  0
 26 29  1  0
 29 30  2  0
 30 31  1  0
 31 32  2  0
 32 33  1  0
 29 34  1  0
 33 34  2  0
  3 35  1  0
  5 36  1  0
  8 37  1  0
 10 38  1  0
 11 39  1  0
 13 40  1  1
 13 41  1  0
 13 42  1  0
 14 43  1  0
 15 44  1  0
 18 45  1  0
 30 46  1  0
 31 47  1  0
 32 48  1  0
 33 49  1  0
 34 50  1  0
M  END
