7AFX_R9K_A_304
     RDKit          3D

 20 22  0  0  0  0  0  0  0  0999 V2000
  -28.0401    7.9579   53.1294 C   0  0  0  0  0  0  0  0  0  0  0  0
  -24.5151    9.7810   54.5766 C   0  0  0  0  0  0  0  0  0  0  0  0
  -26.3047    9.7515   53.0381 C   0  0  0  0  0  0  0  0  0  0  0  0
  -31.1515    5.1825   51.0630 C   0  0  0  0  0  0  0  0  0  0  0  0
  -29.7219    5.4864   51.2877 C   0  0  0  0  0  0  0  0  0  0  0  0
  -28.7560    4.6980   50.6981 C   0  0  0  0  0  0  0  0  0  0  0  0
  -27.4169    4.9850   50.9103 C   0  0  0  0  0  0  0  0  0  0  0  0
  -27.0643    6.0618   51.7133 C   0  0  0  0  0  0  0  0  0  0  0  0
  -28.0406    6.8424   52.2972 C   0  0  0  0  0  0  0  0  0  0  0  0
  -29.3895    6.5621   52.0899 C   0  0  0  0  0  0  0  0  0  0  0  0
  -29.3376    8.3332   53.4113 C   0  0  0  0  0  0  0  0  0  0  0  0
  -26.8222    8.6071   53.6121 C   0  0  0  0  0  0  0  0  0  0  0  0
  -26.1703    8.0311   54.6988 C   0  0  0  0  0  0  0  0  0  0  0  0
  -25.0146    8.6292   55.1730 C   0  0  0  0  0  0  0  0  0  0  0  0
  -25.1511   10.3590   53.5020 C   0  0  0  0  0  0  0  0  0  0  0  0
  -29.7318    9.4583   54.2514 C   0  0  0  0  0  0  0  0  0  0  0  0
  -30.1255    7.4641   52.7640 N   0  0  0  0  0  0  0  0  0  0  0  0
  -28.7898   10.1127   55.0319 O   0  0  0  0  0  0  0  0  0  0  0  0
  -30.9421    9.8455   54.2727 O   0  0  0  0  0  0  0  0  0  0  0  0
  -26.8245    6.5728   55.4349 Cl  0  0  0  0  0  0  0  0  0  0  0  0
  4  5  1  0
  5  6  2  0
  6  7  1  0
  7  8  2  0
  1  9  1  0
  8  9  1  0
  9 10  2  0
  5 10  1  0
  1 11  2  0
  3 12  1  0
  1 12  1  0
 12 13  2  0
  2 14  2  0
 13 14  1  0
  3 15  2  0
  2 15  1  0
 11 16  1  0
 11 17  1  0
 10 17  1  0
 16 18  1  0
 16 19  2  0
 13 20  1  0
M  END
$$$$
