7S9H_7PP_A_301
     RDKit          3D

 29 31  0  0  0  0  0  0  0  0999 V2000
   34.2573    9.0853  -27.8921 Cl  0  0  0  0  0  0  0  0  0  0  0  0
   34.0216    9.9177  -26.3575 C   0  0  0  0  0  0  0  0  0  0  0  0
   35.0850   10.4810  -25.6976 N   0  0  0  0  0  0  0  0  0  0  0  0
   34.8351   11.1065  -24.5202 C   0  0  0  0  0  0  0  0  0  0  0  0
   35.9053   11.7172  -23.7701 N   0  0  0  0  0  0  0  0  0  0  0  0
   33.6192   11.2014  -23.9752 N   0  0  0  0  0  0  0  0  0  0  0  0
   32.5490   10.6697  -24.5769 C   0  0  0  0  0  0  0  0  0  0  0  0
   32.7363   10.0042  -25.8055 C   0  0  0  0  0  0  0  0  0  0  0  0
   31.2300   10.6175  -24.2693 N   0  0  0  0  0  0  0  0  0  0  0  0
   30.5001   11.1376  -23.1514 C   0  0  0  0  0  0  0  0  0  0  0  0
   29.3493   11.9895  -23.5031 C   0  0  0  0  0  0  0  0  0  0  0  0
   29.4223   13.2768  -23.9681 C   0  0  0  0  0  0  0  0  0  0  0  0
   30.7092   13.9265  -24.2345 C   0  0  0  0  0  0  0  0  0  0  0  0
   28.2768   14.0381  -24.2478 C   0  0  0  0  0  0  0  0  0  0  0  0
   28.4113   15.3394  -24.7178 O   0  0  0  0  0  0  0  0  0  0  0  0
   28.2770   15.7444  -26.0496 C   0  0  0  0  0  0  0  0  0  0  0  0
   27.0355   13.4463  -24.0398 C   0  0  0  0  0  0  0  0  0  0  0  0
   25.8047   14.2306  -24.3256 C   0  0  0  0  0  0  0  0  0  0  0  0
   26.9863   12.1331  -23.5666 C   0  0  0  0  0  0  0  0  0  0  0  0
   28.1197   11.4733  -23.3230 N   0  0  0  0  0  0  0  0  0  0  0  0
   30.6156    9.9420  -25.2731 C   0  0  0  0  0  0  0  0  0  0  0  0
   31.5080    9.5497  -26.2351 C   0  0  0  0  0  0  0  0  0  0  0  0
   31.2212    8.8132  -27.4662 C   0  0  0  0  0  0  0  0  0  0  0  0
   30.9654    8.2104  -28.4711 C   0  0  0  0  0  0  0  0  0  0  0  0
   30.6404    7.4511  -29.6913 C   0  0  0  0  0  0  0  0  0  0  0  0
   31.9628    6.9417  -30.2291 C   0  0  2  0  0  0  0  0  0  0  0  0
   31.7293    6.1564  -31.5176 C   0  0  0  0  0  0  0  0  0  0  0  0
   32.6047    5.9995  -29.2386 C   0  0  0  0  0  0  0  0  0  0  0  0
   32.8629    7.9732  -30.4551 O   0  0  0  0  0  0  0  0  0  0  0  0
  1  2  1  0
  2  3  2  0
  3  4  1  0
  4  5  1  0
  4  6  2  0
  6  7  1  0
  2  8  1  0
  7  8  2  0
  7  9  1  0
  9 10  1  0
 10 11  1  0
 11 12  2  0
 12 13  1  0
 12 14  1  0
 14 15  1  0
 15 16  1  0
 14 17  2  0
 17 18  1  0
 17 19  1  0
 11 20  1  0
 19 20  2  0
  9 21  1  0
  8 22  1  0
 21 22  2  0
 22 23  1  0
 23 24  3  0
 24 25  1  0
 25 26  1  0
 26 27  1  6
 26 28  1  0
 26 29  1  0
M  END
$$$$
