7PRI_7TI_AAA_404
     RDKit          3D

 28 28  0  0  0  0  0  0  0  0999 V2000
   53.7346  -44.6979  -11.6464 Cl  0  0  0  0  0  0  0  0  0  0  0  0
   52.1597  -43.5225  -15.7282 O   0  0  0  0  0  0  0  0  0  0  0  0
   51.1027  -42.6915  -15.1843 S   0  0  1  0  0  6  0  0  0  0  0  0
   51.4489  -41.3413  -14.8684 O   0  0  0  0  0  0  0  0  0  0  0  0
   49.8992  -42.7287  -16.1785 N   0  0  0  0  0  0  0  0  0  0  0  0
   50.5382  -43.4509  -13.6455 C   0  0  0  0  0  0  0  0  0  0  0  0
   49.2285  -43.2358  -13.2488 C   0  0  0  0  0  0  0  0  0  0  0  0
   48.6741  -43.9411  -12.1784 C   0  0  0  0  0  0  0  0  0  0  0  0
   47.0399  -43.5173  -11.6325 S   0  0  1  0  0  6  0  0  0  0  0  0
   47.1684  -42.5837  -10.5364 O   0  0  0  0  0  0  0  0  0  0  0  0
   46.2885  -42.7347  -12.8078 N   0  0  0  0  0  0  0  0  0  0  0  0
   46.3311  -44.7485  -11.3937 O   0  0  0  0  0  0  0  0  0  0  0  0
   49.4377  -44.9309  -11.5101 C   0  0  0  0  0  0  0  0  0  0  0  0
   48.9301  -45.7143  -10.5031 N   0  0  0  0  0  0  0  0  0  0  0  0
   50.7780  -45.0832  -11.9029 C   0  0  0  0  0  0  0  0  0  0  0  0
   51.3560  -44.3228  -12.9227 C   0  0  0  0  0  0  0  0  0  0  0  0
   52.8153  -44.1490  -13.0810 C   0  0  0  0  0  0  0  0  0  0  0  0
   53.4203  -43.6991  -14.1627 C   0  0  0  0  0  0  0  0  0  0  0  0
   55.1312  -43.4059  -14.3140 Cl  0  0  0  0  0  0  0  0  0  0  0  0
   52.4885  -43.4729  -15.5842 Cl  0  0  0  0  0  0  0  0  0  0  0  0
   50.1772  -42.3072  -17.0648 H   0  0  0  0  0  0  0  0  0  0  0  0
   49.6178  -43.6965  -16.3356 H   0  0  0  0  0  0  0  0  0  0  0  0
   48.6529  -42.5429  -13.7525 H   0  0  0  0  0  0  0  0  0  0  0  0
   46.7729  -41.8569  -12.9957 H   0  0  0  0  0  0  0  0  0  0  0  0
   46.2857  -43.3087  -13.6509 H   0  0  0  0  0  0  0  0  0  0  0  0
   47.9915  -45.6110  -10.2246 H   0  0  0  0  0  0  0  0  0  0  0  0
   49.5048  -46.3793  -10.0596 H   0  0  0  0  0  0  0  0  0  0  0  0
   51.3592  -45.7852  -11.4186 H   0  0  0  0  0  0  0  0  0  0  0  0
  2  3  2  0
  3  4  2  0
  3  5  1  1
  3  6  1  0
  6  7  4  0
  7  8  4  0
  8  9  1  0
  9 10  2  0
  9 11  1  1
  9 12  2  0
  8 13  4  0
 13 14  1  0
 13 15  4  0
 15 16  4  0
  6 16  4  0
  1 17  1  0
 16 17  1  0
 17 18  2  3
 18 19  1  0
 18 20  1  0
  5 21  1  0
  5 22  1  0
  7 23  1  0
 11 24  1  0
 11 25  1  0
 14 26  1  0
 14 27  1  0
 15 28  1  0
M  END
