7L6D_BMF_A_501
     RDKit          3D

 28 30  0  0  0  0  0  0  0  0999 V2000
    8.1617    9.3324   21.5155 C   0  0  0  0  0  0  0  0  0  0  0  0
    6.3296    7.7696   22.0088 N   0  0  0  0  0  0  0  0  0  0  0  0
    6.0039    8.6710   24.5334 C   0  0  0  0  0  0  0  0  0  0  0  0
    6.8402    9.9614   26.4330 C   0  0  0  0  0  0  0  0  0  0  0  0
    7.6125   11.5579   29.7185 C   0  0  0  0  0  0  0  0  0  0  0  0
    6.9724    9.2199   23.7005 C   0  0  0  0  0  0  0  0  0  0  0  0
    4.3791    5.4848   21.2481 C   0  0  0  0  0  0  0  0  0  0  0  0
    9.3053   11.3346   20.7514 C   0  0  0  0  0  0  0  0  0  0  0  0
   11.0629   11.1358   18.9776 C   0  0  0  0  0  0  0  0  0  0  0  0
   10.0312   10.5409   19.8885 C   0  0  0  0  0  0  0  0  0  0  0  0
    9.8466    9.1596   19.8182 C   0  0  0  0  0  0  0  0  0  0  0  0
   10.6235    8.3893   18.9095 N   0  0  0  0  0  0  0  0  0  0  0  0
   10.2593    6.7111   18.6371 S   0  0  1  0  0  6  0  0  0  0  0  0
    8.6453    6.5127   17.9219 C   0  0  0  0  0  0  0  0  0  0  0  0
   11.3406    6.0889   17.8102 O   0  0  0  0  0  0  0  0  0  0  0  0
   10.2286    5.9650   19.9579 O   0  0  0  0  0  0  0  0  0  0  0  0
    8.9074    8.5759   20.6399 C   0  0  0  0  0  0  0  0  0  0  0  0
    7.1564    8.7754   22.4080 C   0  0  0  0  0  0  0  0  0  0  0  0
    5.4071    7.2438   22.7958 N   0  0  0  0  0  0  0  0  0  0  0  0
    5.1993    7.6544   24.0666 C   0  0  0  0  0  0  0  0  0  0  0  0
    5.8267    9.1390   25.8609 N   0  0  0  0  0  0  0  0  0  0  0  0
    6.8335   10.3228   27.7828 O   0  0  0  0  0  0  0  0  0  0  0  0
    7.7406   11.3260   28.2308 C   0  0  0  0  0  0  0  0  0  0  0  0
    7.7584   10.3613   25.6784 O   0  0  0  0  0  0  0  0  0  0  0  0
    4.1941    6.9064   24.5622 N   0  0  0  0  0  0  0  0  0  0  0  0
    3.7800    6.0544   23.6421 N   0  0  0  0  0  0  0  0  0  0  0  0
    4.5319    6.2532   22.5259 C   0  0  0  0  0  0  0  0  0  0  0  0
    8.3785   10.6944   21.5504 C   0  0  0  0  0  0  0  0  0  0  0  0
  3  6  2  0
  9 10  1  1
  8 10  2  0
 10 11  1  0
 11 12  1  0
 13 12  1  1
 14 13  1  6
 13 15  2  0
 13 16  2  0
 11 17  2  0
  1 17  1  0
  1 18  1  0
  6 18  1  0
  2 18  2  0
  2 19  1  0
  3 20  1  0
 19 20  1  0
  4 21  1  0
  3 21  1  0
  4 22  1  0
  5 23  1  1
 23 22  1  6
  4 24  2  0
 20 25  2  0
 25 26  1  0
 19 27  1  0
  7 27  1  1
 26 27  2  0
  8 28  1  0
  1 28  2  0
M  END
$$$$
