
     RDKit          3D

 24 26  0  0  0  0  0  0  0  0999 V2000
   61.9011  -21.1799   51.8574 N   0  0  0  0  0  0  0  0  0  0  0  0
   60.7473  -20.6920   51.5372 C   0  0  0  0  0  0  0  0  0  0  0  0
   59.9670  -20.1000   52.4759 N   0  0  0  0  0  0  0  0  0  0  0  0
   60.2495  -20.7269   50.2760 N   0  0  0  0  0  0  0  0  0  0  0  0
   60.9161  -21.3205   49.2504 C   0  0  0  0  0  0  0  0  0  0  0  0
   60.4342  -21.4412   48.1272 O   0  0  0  0  0  0  0  0  0  0  0  0
   63.0666  -22.3860   48.5514 N   0  0  0  0  0  0  0  0  0  0  0  0
   64.1201  -23.3417   48.9790 C   0  0  2  0  0  0  0  0  0  0  0  0
   64.8559  -22.7701   50.2391 C   0  0  2  0  0  0  0  0  0  0  0  0
   63.8995  -22.3168   51.2406 N   0  0  0  0  0  0  0  0  0  0  0  0
   62.2732  -21.8409   49.5809 C   0  0  0  0  0  0  0  0  0  0  0  0
   62.6635  -21.7686   50.8801 C   0  0  0  0  0  0  0  0  0  0  0  0
   65.0861  -23.5322   47.8261 C   0  0  0  0  0  0  0  0  0  0  0  0
   64.5273  -24.6030   46.5494 S   0  0  0  0  0  0  0  0  0  0  0  0
   66.3052  -22.9385   47.8399 C   0  0  0  0  0  0  0  0  0  0  0  0
   67.4996  -23.2484   46.5845 S   0  0  0  0  0  0  0  0  0  0  0  0
   66.7331  -22.0178   48.9968 C   0  0  2  0  0  0  0  0  0  0  0  0
   65.6365  -21.6477   49.8462 O   0  0  0  0  0  0  0  0  0  0  0  0
   67.4070  -20.6928   48.5817 C   0  0  0  0  0  0  0  0  0  0  0  0
   67.8834  -19.9474   49.6911 O   0  0  0  0  0  0  0  0  0  0  0  0
   69.1040  -18.9330   49.4845 P   0  0  0  0  0  5  0  0  0  0  0  0
   68.8270  -17.4706   49.5183 O   0  0  0  0  0  0  0  0  0  0  0  0
   70.1414  -19.3935   50.6119 O   0  0  0  0  0  0  0  0  0  0  0  0
   69.8434  -19.4759   48.1837 O   0  0  0  0  0  0  0  0  0  0  0  0
  1  2  4  0
  2  3  1  0
  2  4  4  0
  4  5  4  0
  5  6  2  0
  8  7  1  6
  8  9  1  0
  9 10  1  1
  5 11  4  0
  7 11  1  0
  1 12  4  0
 10 12  1  0
 11 12  4  0
  8 13  1  0
 13 14  1  0
 13 15  2  0
 15 16  1  0
 15 17  1  0
  9 18  1  0
 17 18  1  0
 17 19  1  6
 19 20  1  0
 20 21  1  0
 21 22  2  0
 21 23  1  0
 21 24  1  0
M  END
