8ERS_WQO_A_201
     RDKit          3D

 23 25  0  0  0  0  0  0  0  0999 V2000
  -40.0149   -6.1854   -2.6279 C   0  0  0  0  0  0  0  0  0  0  0  0
  -39.4283   -4.4478   -1.0529 C   0  0  0  0  0  0  0  0  0  0  0  0
  -39.3067   -5.7350   -1.5150 C   0  0  0  0  0  0  0  0  0  0  0  0
  -40.2937   -3.5872   -1.7374 C   0  0  0  0  0  0  0  0  0  0  0  0
  -40.2295   -2.2635   -1.0225 C   0  0  0  0  0  0  0  0  0  0  0  0
  -39.5238   -1.6554    1.2993 C   0  0  0  0  0  0  0  0  0  0  0  0
  -39.9343   -2.7549    0.4021 C   0  0  2  0  0  0  0  0  0  0  0  0
  -41.0011   -4.0204   -2.8410 C   0  0  0  0  0  0  0  0  0  0  0  0
  -40.8743   -5.3222   -3.3036 C   0  0  0  0  0  0  0  0  0  0  0  0
  -36.3341   -6.7323    5.2605 C   0  0  0  0  0  0  0  0  0  0  0  0
  -37.6225   -6.7710    4.7546 C   0  0  0  0  0  0  0  0  0  0  0  0
  -37.9534   -6.0377    3.6206 C   0  0  0  0  0  0  0  0  0  0  0  0
  -36.9795   -5.2734    3.0099 C   0  0  0  0  0  0  0  0  0  0  0  0
  -37.2633   -4.4800    1.8150 C   0  0  0  0  0  0  0  0  0  0  0  0
  -38.8087   -3.7104    0.0851 C   0  0  1  0  0  0  0  0  0  0  0  0
  -35.7006   -5.2475    3.5288 C   0  0  0  0  0  0  0  0  0  0  0  0
  -35.3371   -5.9676    4.6593 C   0  0  0  0  0  0  0  0  0  0  0  0
  -36.0141   -7.5016    6.4384 N   0  0  0  0  0  0  0  0  0  0  0  0
  -39.2281   -6.0766    3.1210 O   0  0  0  0  0  0  0  0  0  0  0  0
  -38.4758   -4.5122    1.1729 O   0  0  0  0  0  0  0  0  0  0  0  0
  -40.4069   -1.2486    2.2749 O   0  0  0  0  0  0  0  0  0  0  0  0
  -38.4184   -1.0628    1.2332 O   0  0  0  0  0  0  0  0  0  0  0  0
  -36.3754   -3.7102    1.3119 O   0  0  0  0  0  0  0  0  0  0  0  0
  1  3  2  0
  2  3  1  0
  2  4  2  0
  5  4  1  1
  5  7  1  0
  7  6  1  1
  4  8  1  0
  1  9  1  0
  8  9  2  0
 10 11  2  0
 11 12  1  0
 12 13  2  0
 13 14  1  0
  2 15  1  0
  7 15  1  0
 13 16  1  0
 16 17  2  0
 10 17  1  0
 10 18  1  0
 12 19  1  0
 15 20  1  1
 14 20  1  0
  6 21  1  0
  6 22  2  0
 14 23  2  0
M  END
$$$$
