7TYP_KUR_B_501
     RDKit          3D

 37 42  0  0  0  0  0  0  0  0999 V2000
  -35.7580    4.4520   26.7920 N   0  0  0  0  0  0  0  0  0  0  0  0
  -33.6880    7.8600   22.4540 C   0  0  0  0  0  0  0  0  0  0  0  0
  -32.1530    8.6450   20.8020 C   0  0  0  0  0  0  0  0  0  0  0  0
  -33.2820    8.8130   21.5800 N   0  0  0  0  0  0  0  0  0  0  0  0
  -31.3930    7.5170   20.9700 C   0  0  0  0  0  0  0  0  0  0  0  0
  -36.2400    8.8080   24.7010 O   0  0  0  0  0  0  0  0  0  0  0  0
  -34.9550    5.2150   26.0470 C   0  0  0  0  0  0  0  0  0  0  0  0
  -34.5640    6.4580   23.9170 C   0  0  0  0  0  0  0  0  0  0  0  0
  -34.7440    7.7420   23.3260 C   0  0  0  0  0  0  0  0  0  0  0  0
  -32.9630    6.7230   22.5490 N   0  0  0  0  0  0  0  0  0  0  0  0
  -36.9980    4.2330   26.3530 C   0  0  0  0  0  0  0  0  0  0  0  0
  -37.4560    4.7690   25.1870 C   0  0  0  0  0  0  0  0  0  0  0  0
  -35.4400    5.7690   24.8350 C   0  0  0  0  0  0  0  0  0  0  0  0
  -33.4860    5.8620   23.4440 N   0  0  0  0  0  0  0  0  0  0  0  0
  -36.6950    5.5540   24.4250 N   0  0  0  0  0  0  0  0  0  0  0  0
  -33.5580    5.3920   26.5570 C   0  0  0  0  0  0  0  0  0  0  0  0
  -31.1140    5.4940   22.1250 O   0  0  0  0  0  0  0  0  0  0  0  0
  -31.7530    6.4960   21.8890 C   0  0  0  0  0  0  0  0  0  0  0  0
  -31.8450    9.7020   19.8080 C   0  0  0  0  0  0  0  0  0  0  0  0
  -32.8360   10.5210   19.2810 C   0  0  0  0  0  0  0  0  0  0  0  0
  -32.5450   11.4340   18.3020 C   0  0  0  0  0  0  0  0  0  0  0  0
  -31.2730   11.5540   17.7890 C   0  0  0  0  0  0  0  0  0  0  0  0
  -30.2790   10.7630   18.3260 C   0  0  0  0  0  0  0  0  0  0  0  0
  -30.5530    9.8630   19.3270 C   0  0  0  0  0  0  0  0  0  0  0  0
  -31.0280   12.4840   16.6240 C   0  0  0  0  0  0  0  0  0  0  0  0
  -30.9220   11.7840   15.2830 C   0  0  0  0  0  0  0  0  0  0  0  0
  -30.8840   12.7930   14.1460 C   0  0  0  0  0  0  0  0  0  0  0  0
  -29.7410   13.7630   14.3160 C   0  0  0  0  0  0  0  0  0  0  0  0
  -29.7710   14.4210   15.6750 C   0  0  0  0  0  0  0  0  0  0  0  0
  -29.8330   13.3970   16.7930 C   0  0  0  0  0  0  0  0  0  0  0  0
  -35.8390    8.6930   23.5780 C   0  0  0  0  0  0  0  0  0  0  0  0
  -37.4610   10.3390   22.5220 C   0  0  0  0  0  0  0  0  0  0  0  0
  -37.2910   10.4180   21.0120 C   0  0  0  0  0  0  0  0  0  0  0  0
  -36.2460    9.2880   21.0980 C   0  0  0  0  0  0  0  0  0  0  0  0
  -36.7360   11.7120   20.5090 C   0  0  0  0  0  0  0  0  0  0  0  0
  -36.4870   11.6110   19.2470 F   0  0  0  0  0  0  0  0  0  0  0  0
  -36.3580    9.3720   22.5530 N   0  0  0  0  0  0  0  0  0  0  0  0
  3  4  1  0
  2  4  1  0
  3  5  2  0
  1  7  2  0
  2  9  2  0
  8  9  1  0
  2 10  1  0
  1 11  1  0
 11 12  2  0
  8 13  1  0
  7 13  1  0
 10 14  1  0
  8 14  2  0
 13 15  2  0
 12 15  1  0
  7 16  1  0
  5 18  1  0
 17 18  2  0
 10 18  1  0
  3 19  1  0
 19 20  2  0
 20 21  1  0
 21 22  2  0
 22 23  1  0
 23 24  2  0
 19 24  1  0
 22 25  1  0
 25 26  1  0
 26 27  1  0
 27 28  1  0
 28 29  1  0
 29 30  1  0
 25 30  1  0
  9 31  1  0
  6 31  2  0
 32 33  1  0
 33 34  1  0
 33 35  1  0
 35 36  1  0
 34 37  1  0
 32 37  1  0
 31 37  1  0
M  END
$$$$
7TYP_KUR_A_602
     RDKit          3D

 37 42  0  0  0  0  0  0  0  0999 V2000
  -37.0720   -8.0850   23.7700 N   0  0  0  0  0  0  0  0  0  0  0  0
  -36.9970  -11.9480   19.3650 C   0  0  0  0  0  0  0  0  0  0  0  0
  -37.7190  -13.0440   17.3890 C   0  0  0  0  0  0  0  0  0  0  0  0
  -36.9390  -12.9790   18.4950 N   0  0  0  0  0  0  0  0  0  0  0  0
  -38.6180  -12.0460   17.1560 C   0  0  0  0  0  0  0  0  0  0  0  0
  -35.3180  -12.3380   22.4740 O   0  0  0  0  0  0  0  0  0  0  0  0
  -37.4420   -9.0060   22.8770 C   0  0  0  0  0  0  0  0  0  0  0  0
  -36.9090  -10.3950   20.9150 C   0  0  0  0  0  0  0  0  0  0  0  0
  -36.3290  -11.6270   20.5260 C   0  0  0  0  0  0  0  0  0  0  0  0
  -37.8980  -10.9750   19.1340 N   0  0  0  0  0  0  0  0  0  0  0  0
  -35.8000   -7.6860   23.7640 C   0  0  0  0  0  0  0  0  0  0  0  0
  -34.8930   -8.1970   22.8890 C   0  0  0  0  0  0  0  0  0  0  0  0
  -36.5010   -9.5270   21.9840 C   0  0  0  0  0  0  0  0  0  0  0  0
  -37.8610  -10.0250   20.0810 N   0  0  0  0  0  0  0  0  0  0  0  0
  -35.2250   -9.1280   21.9930 N   0  0  0  0  0  0  0  0  0  0  0  0
  -38.8910   -9.3820   22.8670 C   0  0  0  0  0  0  0  0  0  0  0  0
  -39.5990  -10.1180   17.9390 O   0  0  0  0  0  0  0  0  0  0  0  0
  -38.7730  -10.9700   18.0420 C   0  0  0  0  0  0  0  0  0  0  0  0
  -37.5370  -14.2120   16.4950 C   0  0  0  0  0  0  0  0  0  0  0  0
  -36.3360  -14.9080   16.4520 C   0  0  0  0  0  0  0  0  0  0  0  0
  -36.1170  -15.8720   15.5070 C   0  0  0  0  0  0  0  0  0  0  0  0
  -37.0740  -16.1840   14.5660 C   0  0  0  0  0  0  0  0  0  0  0  0
  -38.2940  -15.5420   14.6370 C   0  0  0  0  0  0  0  0  0  0  0  0
  -38.5310  -14.5780   15.5890 C   0  0  0  0  0  0  0  0  0  0  0  0
  -36.7190  -17.1660   13.4740 C   0  0  0  0  0  0  0  0  0  0  0  0
  -36.5170  -16.5260   12.1110 C   0  0  0  0  0  0  0  0  0  0  0  0
  -36.0000  -17.5370   11.1050 C   0  0  0  0  0  0  0  0  0  0  0  0
  -36.9410  -18.6980   10.9810 C   0  0  0  0  0  0  0  0  0  0  0  0
  -37.1920  -19.3420   12.3200 C   0  0  0  0  0  0  0  0  0  0  0  0
  -37.6830  -18.3300   13.3460 C   0  0  0  0  0  0  0  0  0  0  0  0
  -35.2670  -12.3620   21.2800 C   0  0  0  0  0  0  0  0  0  0  0  0
  -33.2330  -13.8960   21.0600 C   0  0  0  0  0  0  0  0  0  0  0  0
  -32.7890  -13.9990   19.6120 C   0  0  0  0  0  0  0  0  0  0  0  0
  -33.9770  -13.1290   19.2000 C   0  0  0  0  0  0  0  0  0  0  0  0
  -32.8590  -15.3720   19.0410 C   0  0  0  0  0  0  0  0  0  0  0  0
  -32.7580  -15.3660   17.7640 F   0  0  0  0  0  0  0  0  0  0  0  0
  -34.3160  -13.0180   20.6180 N   0  0  0  0  0  0  0  0  0  0  0  0
  3  4  1  0
  2  4  1  0
  3  5  2  0
  1  7  2  0
  2  9  2  0
  8  9  1  0
  2 10  1  0
  1 11  1  0
 11 12  2  0
  8 13  1  0
  7 13  1  0
 10 14  1  0
  8 14  2  0
 13 15  2  0
 12 15  1  0
  7 16  1  0
  5 18  1  0
 17 18  2  0
 10 18  1  0
  3 19  1  0
 19 20  2  0
 20 21  1  0
 21 22  2  0
 22 23  1  0
 23 24  2  0
 19 24  1  0
 22 25  1  0
 25 26  1  0
 26 27  1  0
 27 28  1  0
 28 29  1  0
 29 30  1  0
 25 30  1  0
  9 31  1  0
  6 31  2  0
 32 33  1  0
 33 34  1  0
 33 35  1  0
 35 36  1  0
 34 37  1  0
 32 37  1  0
 31 37  1  0
M  END
$$$$
