7A1P_QW2_A_505
     RDKit          3D

 25 24  0  0  0  0  0  0  0  0999 V2000
   12.3528   -6.6477   -3.6776 C   0  0  0  0  0  0  0  0  0  0  0  0
   13.3403   -5.7621   -4.4611 C   0  0  0  0  0  0  0  0  0  0  0  0
   13.0414   -5.7216   -5.9596 C   0  0  0  0  0  0  0  0  0  0  0  0
    8.1840   -5.4487   -5.0817 C   0  0  0  0  0  0  0  0  0  0  0  0
   11.4564   -6.0410   -1.4078 C   0  0  0  0  0  0  0  0  0  0  0  0
   11.2790   -5.8558   -2.8914 C   0  0  2  0  0  0  0  0  0  0  0  0
    9.8530   -6.2922   -3.2876 C   0  0  0  0  0  0  0  0  0  0  0  0
    9.0827   -5.1809   -3.9472 C   0  0  0  0  0  0  0  0  0  0  0  0
    9.1942   -4.0048   -3.5059 O   0  0  0  0  0  0  0  0  0  0  0  0
    8.5393   -6.2432   -5.9926 O   0  0  0  0  0  0  0  0  0  0  0  0
    6.9401   -4.8284   -5.1546 O   0  0  0  0  0  0  0  0  0  0  0  0
   10.9387   -7.0344   -0.8296 O   0  0  0  0  0  0  0  0  0  0  0  0
   12.1941   -5.1183   -0.6715 O   0  0  0  0  0  0  0  0  0  0  0  0
   11.8604   -7.3393   -4.3950 H   0  0  0  0  0  0  0  0  0  0  0  0
   12.9347   -7.2775   -2.9695 H   0  0  0  0  0  0  0  0  0  0  0  0
   14.3623   -6.1765   -4.3225 H   0  0  0  0  0  0  0  0  0  0  0  0
   13.3481   -4.7285   -4.0546 H   0  0  0  0  0  0  0  0  0  0  0  0
   13.8679   -5.1989   -6.4858 H   0  0  0  0  0  0  0  0  0  0  0  0
   12.1025   -5.1653   -6.1580 H   0  0  0  0  0  0  0  0  0  0  0  0
   12.9567   -6.7508   -6.3687 H   0  0  0  0  0  0  0  0  0  0  0  0
   11.3819   -4.7744   -3.1286 H   0  0  0  0  0  0  0  0  0  0  0  0
    9.2944   -6.6176   -2.3818 H   0  0  0  0  0  0  0  0  0  0  0  0
    9.9006   -7.1687   -3.9713 H   0  0  0  0  0  0  0  0  0  0  0  0
    6.3152   -5.0053   -5.9321 H   0  0  0  0  0  0  0  0  0  0  0  0
   12.3197   -5.2324    0.3271 H   0  0  0  0  0  0  0  0  0  0  0  0
  1  2  1  0
  2  3  1  0
  6  1  1  0
  5  6  1  0
  6  7  1  0
  7  8  1  0
  4  8  1  0
  8  9  2  0
  4 10  2  0
  4 11  1  0
  5 12  2  0
  5 13  1  0
  1 14  1  0
  1 15  1  0
  2 16  1  0
  2 17  1  0
  3 18  1  0
  3 19  1  0
  3 20  1  0
  6 21  1  1
  7 22  1  0
  7 23  1  0
 11 24  1  0
 13 25  1  0
M  END
