1Q1G_MTI_F_306
     RDKit          3D

 20 22  0  0  0  0  0  0  0  0999 V2000
   30.8750   15.3550   87.8993 C   0  0  0  0  0  0  0  0  0  0  0  0
   30.3157   13.6506   87.9330 S   0  0  0  0  0  0  0  0  0  0  0  0
   31.9035   12.7823   88.0589 C   0  0  0  0  0  0  0  0  0  0  0  0
   31.7754   11.3783   88.6405 C   0  0  1  0  0  0  0  0  0  0  0  0
   33.0576   10.6984   88.4903 N   0  0  0  0  0  0  0  0  0  0  0  0
   32.8383   11.1787   90.8151 C   0  0  2  0  0  0  0  0  0  0  0  0
   32.7840   10.1959   91.8981 O   0  0  0  0  0  0  0  0  0  0  0  0
   31.4109   11.3645   90.1288 C   0  0  2  0  0  0  0  0  0  0  0  0
   30.5331   10.2114   90.4131 O   0  0  0  0  0  0  0  0  0  0  0  0
   33.8580   10.7402   89.7077 C   0  0  2  0  0  0  0  0  0  0  0  0
   35.0672   11.6934   89.4372 C   0  0  0  0  0  0  0  0  0  0  0  0
   36.1073   11.4135   88.5511 C   0  0  0  0  0  0  0  0  0  0  0  0
   37.0371   12.3411   88.4578 N   0  0  0  0  0  0  0  0  0  0  0  0
   36.6253   13.3426   89.3313 C   0  0  0  0  0  0  0  0  0  0  0  0
   37.2466   14.6140   89.6588 C   0  0  0  0  0  0  0  0  0  0  0  0
   38.3070   15.0591   89.2025 O   0  0  0  0  0  0  0  0  0  0  0  0
   36.5207   15.3911   90.6118 N   0  0  0  0  0  0  0  0  0  0  0  0
   35.3012   14.9934   91.2075 C   0  0  0  0  0  0  0  0  0  0  0  0
   34.7068   13.7791   90.9009 N   0  0  0  0  0  0  0  0  0  0  0  0
   35.4087   12.9866   89.9558 C   0  0  0  0  0  0  0  0  0  0  0  0
  1  2  1  0
  2  3  1  0
  4  3  1  1
  4  5  1  0
  6  7  1  1
  4  8  1  0
  6  8  1  0
  8  9  1  6
  5 10  1  0
  6 10  1  0
 10 11  1  6
 11 12  2  0
 12 13  1  0
 13 14  1  0
 14 15  1  0
 15 16  2  0
 15 17  1  0
 17 18  1  0
 18 19  2  0
 11 20  1  0
 14 20  2  0
 19 20  1  0
M  CHG  1   5   1
M  END
