
     RDKit          3D

 44 48  0  0  0  0  0  0  0  0999 V2000
   30.9825   -4.4492  -38.0106 P   0  0  2  0  0  5  0  0  0  0  0  0
   32.3635   -5.0100  -38.0470 O   0  0  0  0  0  0  0  0  0  0  0  0
   30.8393   -3.1534  -38.9441 O   0  0  0  0  0  0  0  0  0  0  0  0
   30.5234   -3.9052  -36.5715 O   0  0  0  0  0  0  0  0  0  0  0  0
   31.4351   -4.0198  -35.4943 C   0  0  0  0  0  0  0  0  0  0  0  0
   32.1922   -2.7055  -35.3061 C   0  0  1  0  0  0  0  0  0  0  0  0
   32.7199   -2.6501  -33.9607 O   0  0  0  0  0  0  0  0  0  0  0  0
   33.3774   -2.5514  -36.2619 C   0  0  1  0  0  0  0  0  0  0  0  0
   33.6644   -1.1579  -36.4987 O   0  0  0  0  0  0  0  0  0  0  0  0
   34.5340   -3.1169  -35.4584 C   0  0  1  0  0  0  0  0  0  0  0  0
   35.7855   -2.5781  -35.8907 O   0  0  0  0  0  0  0  0  0  0  0  0
   34.1597   -2.6634  -34.0495 C   0  0  2  0  0  0  0  0  0  0  0  0
   34.7187   -3.5003  -33.0059 N   0  0  0  0  0  0  0  0  0  0  0  0
   35.2752   -4.7379  -33.2160 C   0  0  0  0  0  0  0  0  0  0  0  0
   35.6659   -5.3037  -32.0942 N   0  0  0  0  0  0  0  0  0  0  0  0
   35.3447   -4.3887  -31.1129 C   0  0  0  0  0  0  0  0  0  0  0  0
   35.5047   -4.4084  -29.7168 C   0  0  0  0  0  0  0  0  0  0  0  0
   36.0919   -5.4651  -29.0346 N   0  0  0  0  0  0  0  0  0  0  0  0
   35.0507   -3.3568  -28.9987 N   0  0  0  0  0  0  0  0  0  0  0  0
   34.4846   -2.3270  -29.6624 C   0  0  0  0  0  0  0  0  0  0  0  0
   34.2587   -2.2043  -30.9868 N   0  0  0  0  0  0  0  0  0  0  0  0
   34.7321   -3.2694  -31.6572 C   0  0  0  0  0  0  0  0  0  0  0  0
   29.8041   -5.4023  -38.4673 O   0  0  0  0  0  0  0  0  0  0  0  0
   28.2903   -4.9622  -38.5913 P   0  0  2  0  0  5  0  0  0  0  0  0
   27.9268   -5.2668  -40.1218 O   0  0  0  0  0  0  0  0  0  0  0  0
   27.9899   -3.5460  -38.2351 O   0  0  0  0  0  0  0  0  0  0  0  0
   27.4208   -6.0509  -37.7938 O   0  0  0  0  0  0  0  0  0  0  0  0
   27.4955   -6.0767  -36.3791 C   0  0  0  0  0  0  0  0  0  0  0  0
   27.4630   -7.5188  -35.8650 C   0  0  1  0  0  0  0  0  0  0  0  0
   26.0746   -7.9251  -35.7727 O   0  0  0  0  0  0  0  0  0  0  0  0
   28.1623   -8.5133  -36.7967 C   0  0  1  0  0  0  0  0  0  0  0  0
   28.6376   -9.6460  -36.0504 O   0  0  0  0  0  0  0  0  0  0  0  0
   27.0284   -8.9597  -37.6961 C   0  0  1  0  0  0  0  0  0  0  0  0
   27.3255  -10.2029  -38.3351 O   0  0  0  0  0  0  0  0  0  0  0  0
   25.8794   -9.0273  -36.6790 C   0  0  2  0  0  0  0  0  0  0  0  0
   24.5711   -8.9677  -37.3618 N   0  0  0  0  0  0  0  0  0  0  0  0
   23.4786   -9.7231  -36.9278 C   0  0  0  0  0  0  0  0  0  0  0  0
   22.2613   -9.6805  -37.5018 C   0  0  0  0  0  0  0  0  0  0  0  0
   21.1921  -10.5201  -36.9102 C   0  0  0  0  0  0  0  0  0  0  0  0
   20.1711  -10.8251  -37.5190 O   0  0  0  0  0  0  0  0  0  0  0  0
   21.3965  -10.9636  -35.6429 N   0  0  0  0  0  0  0  0  0  0  0  0
   22.0029   -8.7761  -38.6783 C   0  0  0  0  0  0  0  0  0  0  0  0
   23.2116   -7.9638  -39.0776 C   0  0  0  0  0  0  0  0  0  0  0  0
   24.3798   -8.0988  -38.4337 C   0  0  0  0  0  0  0  0  0  0  0  0
  1  2  2  0
  1  3  1  6
  1  4  1  0
  4  5  1  0
  6  5  1  6
  6  7  1  0
  6  8  1  0
  8  9  1  1
  8 10  1  0
 10 11  1  6
  7 12  1  0
 10 12  1  0
 12 13  1  1
 13 14  4  0
 14 15  4  0
 15 16  4  0
 16 17  4  0
 17 18  1  0
 17 19  4  0
 19 20  4  0
 20 21  4  0
 13 22  4  0
 16 22  4  0
 21 22  4  0
  1 23  1  0
 23 24  1  0
 24 25  1  6
 24 26  2  0
 24 27  1  0
 27 28  1  0
 29 28  1  6
 29 30  1  0
 29 31  1  0
 31 32  1  1
 31 33  1  0
 33 34  1  1
 30 35  1  0
 33 35  1  0
 35 36  1  6
 36 37  1  0
 37 38  2  0
 38 39  1  0
 39 40  2  0
 39 41  1  0
 38 42  1  0
 42 43  1  0
 36 44  1  0
 43 44  2  0
M  END
