1J3J_CP6_A_609
     RDKit          3D

 30 31  0  0  0  0  0  0  0  0999 V2000
   30.0866    4.4128   56.0133 N   0  0  0  0  0  0  0  0  0  0  0  0
   29.4377    5.3003   55.1537 C   0  0  0  0  0  0  0  0  0  0  0  0
   29.6894    4.3348   57.3308 C   0  0  0  0  0  0  0  0  0  0  0  0
   28.5173    5.1175   57.8236 C   0  0  0  0  0  0  0  0  0  0  0  0
   27.9192    6.0471   56.8128 C   0  0  0  0  0  0  0  0  0  0  0  0
   28.3448    6.0942   55.5188 N   0  0  0  0  0  0  0  0  0  0  0  0
   28.0302    5.0670   59.1832 C   0  0  0  0  0  0  0  0  0  0  0  0
   28.6357    5.7538   60.2489 C   0  0  0  0  0  0  0  0  0  0  0  0
   28.1363    5.6717   61.5697 C   0  0  0  0  0  0  0  0  0  0  0  0
   26.9775    4.8548   61.8624 C   0  0  0  0  0  0  0  0  0  0  0  0
   26.3336    4.1614   60.8423 C   0  0  0  0  0  0  0  0  0  0  0  0
   26.8498    4.2665   59.5152 C   0  0  0  0  0  0  0  0  0  0  0  0
   30.2969    3.4880   58.1910 N   0  0  0  0  0  0  0  0  0  0  0  0
   29.8624    5.3644   53.8184 N   0  0  0  0  0  0  0  0  0  0  0  0
   26.7472    6.8908   57.2356 C   0  0  0  0  0  0  0  0  0  0  0  0
   25.5537    7.0282   56.3167 C   0  0  0  0  0  0  0  0  0  0  0  0
   26.5063    4.8301   63.4561 Cl  0  0  0  0  0  0  0  0  0  0  0  0
   29.4683    6.3344   60.0628 H   0  0  0  0  0  0  0  0  0  0  0  0
   28.5999    6.1964   62.3278 H   0  0  0  0  0  0  0  0  0  0  0  0
   25.5014    3.5841   61.0405 H   0  0  0  0  0  0  0  0  0  0  0  0
   26.3702    3.7563   58.7572 H   0  0  0  0  0  0  0  0  0  0  0  0
   31.0723    2.9584   57.8952 H   0  0  0  0  0  0  0  0  0  0  0  0
   29.9642    3.4007   59.1134 H   0  0  0  0  0  0  0  0  0  0  0  0
   30.6276    4.8224   53.5187 H   0  0  0  0  0  0  0  0  0  0  0  0
   29.3953    5.9515   53.1809 H   0  0  0  0  0  0  0  0  0  0  0  0
   27.1217    7.8782   57.4080 H   0  0  0  0  0  0  0  0  0  0  0  0
   26.3529    6.3651   58.0800 H   0  0  0  0  0  0  0  0  0  0  0  0
   25.8456    7.5483   55.4284 H   0  0  0  0  0  0  0  0  0  0  0  0
   24.7818    7.5773   56.8143 H   0  0  0  0  0  0  0  0  0  0  0  0
   25.1894    6.0560   56.0575 H   0  0  0  0  0  0  0  0  0  0  0  0
  1  2  2  0
  1  3  1  0
  3  4  2  0
  4  5  1  0
  2  6  1  0
  5  6  2  0
  4  7  1  0
  7  8  2  0
  8  9  1  0
  9 10  2  0
 10 11  1  0
  7 12  1  0
 11 12  2  0
  3 13  1  0
  2 14  1  0
  5 15  1  0
 15 16  1  0
 10 17  1  0
  8 18  1  0
  9 19  1  0
 11 20  1  0
 12 21  1  0
 13 22  1  0
 13 23  1  0
 14 24  1  0
 14 25  1  0
 15 26  1  0
 15 27  1  0
 16 28  1  0
 16 29  1  0
 16 30  1  0
M  END
