7TWC_CXS_A_501
     RDKit          3D

 14 14  0  0  0  0  0  0  0  0999 V2000
    8.5921    7.2082   12.8678 S   0  0  1  0  0  6  0  0  0  0  0  0
    9.4576    8.3745   13.1784 O   0  0  0  0  0  0  0  0  0  0  0  0
    8.2705    7.1621   11.3949 O   0  0  0  0  0  0  0  0  0  0  0  0
    9.3298    5.7264   13.2470 O   0  0  0  0  0  0  0  0  0  0  0  0
    7.0424    7.2559   13.7367 C   0  0  0  0  0  0  0  0  0  0  0  0
    6.3403    8.5552   13.3278 C   0  0  0  0  0  0  0  0  0  0  0  0
    4.9411    8.5938   13.8007 C   0  0  0  0  0  0  0  0  0  0  0  0
    4.1963    9.7243   13.4958 N   0  0  0  0  0  0  0  0  0  0  0  0
    3.0693   10.1681   14.1733 C   0  0  1  0  0  0  0  0  0  0  0  0
    2.4974   11.5231   13.9937 C   0  0  0  0  0  0  0  0  0  0  0  0
    1.3253   11.5872   15.0158 C   0  0  0  0  0  0  0  0  0  0  0  0
    0.1475   10.9749   14.2964 C   0  0  0  0  0  0  0  0  0  0  0  0
    0.6382    9.7878   13.5453 C   0  0  0  0  0  0  0  0  0  0  0  0
    1.9039    9.1807   14.0351 C   0  0  0  0  0  0  0  0  0  0  0  0
  1  2  2  0
  1  3  2  0
  1  4  1  1
  5  1  1  1
  5  6  1  0
  6  7  1  1
  7  8  1  1
  9  8  1  6
  9 10  1  0
 10 11  1  1
 11 12  1  6
 12 13  1  1
 14  9  1  1
 13 14  1  1
M  END
$$$$
