1OWE_675_A_1001
     RDKit          3D

 22 24  0  0  0  0  0  0  0  0999 V2000
   18.6729   21.0876   34.3637 N   0  0  0  0  0  0  0  0  0  0  0  0
   18.1942   19.9590   33.9489 C   0  0  0  0  0  0  0  0  0  0  0  0
   16.7871   19.7583   33.7840 N   0  0  0  0  0  0  0  0  0  0  0  0
   19.1525   18.8965   33.6553 C   0  0  0  0  0  0  0  0  0  0  0  0
   18.7609   17.7851   32.9068 C   0  0  0  0  0  0  0  0  0  0  0  0
   19.6389   16.7628   32.6104 C   0  0  0  0  0  0  0  0  0  0  0  0
   20.9480   16.8060   33.0492 C   0  0  0  0  0  0  0  0  0  0  0  0
   21.8150   15.7780   32.7461 C   0  0  0  0  0  0  0  0  0  0  0  0
   23.1108   15.8739   33.2103 C   0  0  0  0  0  0  0  0  0  0  0  0
   23.4842   16.9653   33.9418 C   0  0  0  0  0  0  0  0  0  0  0  0
   22.6153   18.0104   34.2540 C   0  0  0  0  0  0  0  0  0  0  0  0
   21.3211   17.9090   33.7872 C   0  0  0  0  0  0  0  0  0  0  0  0
   20.4475   18.9334   34.0862 C   0  0  0  0  0  0  0  0  0  0  0  0
   24.0228   14.7850   32.8871 C   0  0  0  0  0  0  0  0  0  0  0  0
   25.1669   14.7801   33.4126 O   0  0  0  0  0  0  0  0  0  0  0  0
   23.6876   13.7246   32.0068 N   0  0  0  0  0  0  0  0  0  0  0  0
   24.6975   12.7412   31.7735 C   0  0  0  0  0  0  0  0  0  0  0  0
   25.6952   12.9536   30.8336 C   0  0  0  0  0  0  0  0  0  0  0  0
   26.6708   12.0061   30.6068 C   0  0  0  0  0  0  0  0  0  0  0  0
   26.6690   10.8146   31.3222 C   0  0  0  0  0  0  0  0  0  0  0  0
   25.6629   10.6106   32.2638 C   0  0  0  0  0  0  0  0  0  0  0  0
   24.6783   11.5590   32.4974 C   0  0  0  0  0  0  0  0  0  0  0  0
  1  2  2  0
  2  3  1  0
  2  4  1  0
  4  5  2  0
  5  6  1  0
  6  7  2  0
  7  8  1  0
  8  9  2  0
  9 10  1  0
 10 11  2  0
  7 12  1  0
 11 12  1  0
  4 13  1  0
 12 13  2  0
  9 14  1  0
 14 15  2  0
 14 16  1  0
 16 17  1  0
 17 18  2  0
 18 19  1  0
 19 20  2  0
 20 21  1  0
 17 22  1  0
 21 22  2  0
M  END
$$$$
