1OWE_675_A_1001
     RDKit          3D

 22 24  0  0  0  0  0  0  0  0999 V2000
   16.7940   19.5487   33.4006 N   0  0  0  0  0  0  0  0  0  0  0  0
   18.0189   19.8126   33.7243 C   0  0  0  0  0  0  0  0  0  0  0  0
   18.3766   21.0443   34.3586 N   0  0  0  0  0  0  0  0  0  0  0  0
   19.0232   18.7983   33.4143 C   0  0  0  0  0  0  0  0  0  0  0  0
   18.7560   17.8142   32.4609 C   0  0  0  0  0  0  0  0  0  0  0  0
   19.6807   16.8408   32.1428 C   0  0  0  0  0  0  0  0  0  0  0  0
   20.9141   16.8077   32.7637 C   0  0  0  0  0  0  0  0  0  0  0  0
   21.8289   15.8298   32.4366 C   0  0  0  0  0  0  0  0  0  0  0  0
   23.0450   15.8451   33.0884 C   0  0  0  0  0  0  0  0  0  0  0  0
   23.2969   16.8121   34.0196 C   0  0  0  0  0  0  0  0  0  0  0  0
   22.3786   17.8058   34.3578 C   0  0  0  0  0  0  0  0  0  0  0  0
   21.1647   17.7852   33.7029 C   0  0  0  0  0  0  0  0  0  0  0  0
   20.2440   18.7604   34.0246 C   0  0  0  0  0  0  0  0  0  0  0  0
   24.0080   14.8096   32.7389 C   0  0  0  0  0  0  0  0  0  0  0  0
   23.7286   14.0174   31.8010 O   0  0  0  0  0  0  0  0  0  0  0  0
   25.2504   14.6462   33.4034 N   0  0  0  0  0  0  0  0  0  0  0  0
   26.1227   13.6362   32.8931 C   0  0  0  0  0  0  0  0  0  0  0  0
   27.0899   13.9417   31.9470 C   0  0  0  0  0  0  0  0  0  0  0  0
   27.9328   12.9688   31.4531 C   0  0  0  0  0  0  0  0  0  0  0  0
   27.8251   11.6570   31.8995 C   0  0  0  0  0  0  0  0  0  0  0  0
   26.8506   11.3603   32.8497 C   0  0  0  0  0  0  0  0  0  0  0  0
   25.9992   12.3335   33.3510 C   0  0  0  0  0  0  0  0  0  0  0  0
  1  2  2  0
  2  3  1  0
  2  4  1  0
  4  5  2  0
  5  6  1  0
  6  7  2  0
  7  8  1  0
  8  9  2  0
  9 10  1  0
 10 11  2  0
  7 12  1  0
 11 12  1  0
  4 13  1  0
 12 13  2  0
  9 14  1  0
 14 15  2  0
 14 16  1  0
 16 17  1  0
 17 18  2  0
 18 19  1  0
 19 20  2  0
 20 21  1  0
 17 22  1  0
 21 22  2  0
M  END
$$$$
