1OWE_675_A_1001
     RDKit          3D

 22 24  0  0  0  0  0  0  0  0999 V2000
   17.1478   18.5625   32.7669 N   0  0  0  0  0  0  0  0  0  0  0  0
   17.9939   19.2053   33.5057 C   0  0  0  0  0  0  0  0  0  0  0  0
   17.6535   20.4502   34.1233 N   0  0  0  0  0  0  0  0  0  0  0  0
   19.3138   18.6053   33.6831 C   0  0  0  0  0  0  0  0  0  0  0  0
   20.1900   19.1088   34.6462 C   0  0  0  0  0  0  0  0  0  0  0  0
   21.4440   18.5672   34.8414 C   0  0  0  0  0  0  0  0  0  0  0  0
   21.8780   17.4979   34.0824 C   0  0  0  0  0  0  0  0  0  0  0  0
   23.1332   16.9662   34.2876 C   0  0  0  0  0  0  0  0  0  0  0  0
   23.5143   15.8988   33.5006 C   0  0  0  0  0  0  0  0  0  0  0  0
   22.6498   15.4135   32.5611 C   0  0  0  0  0  0  0  0  0  0  0  0
   21.3781   15.9439   32.3454 C   0  0  0  0  0  0  0  0  0  0  0  0
   21.0029   17.0108   33.1352 C   0  0  0  0  0  0  0  0  0  0  0  0
   19.7485   17.5484   32.9360 C   0  0  0  0  0  0  0  0  0  0  0  0
   24.8415   15.3408   33.7217 C   0  0  0  0  0  0  0  0  0  0  0  0
   25.2187   14.3780   33.0033 O   0  0  0  0  0  0  0  0  0  0  0  0
   25.7358   15.8277   34.7090 N   0  0  0  0  0  0  0  0  0  0  0  0
   27.0358   15.2360   34.7448 C   0  0  0  0  0  0  0  0  0  0  0  0
   28.1131   15.8448   34.1181 C   0  0  0  0  0  0  0  0  0  0  0  0
   29.3685   15.2757   34.1513 C   0  0  0  0  0  0  0  0  0  0  0  0
   29.5748   14.0740   34.8184 C   0  0  0  0  0  0  0  0  0  0  0  0
   28.4867   13.4705   35.4445 C   0  0  0  0  0  0  0  0  0  0  0  0
   27.2210   14.0370   35.4155 C   0  0  0  0  0  0  0  0  0  0  0  0
  1  2  2  0
  2  3  1  0
  2  4  1  0
  4  5  2  0
  5  6  1  0
  6  7  2  0
  7  8  1  0
  8  9  2  0
  9 10  1  0
 10 11  2  0
  7 12  1  0
 11 12  1  0
  4 13  1  0
 12 13  2  0
  9 14  1  0
 14 15  2  0
 14 16  1  0
 16 17  1  0
 17 18  2  0
 18 19  1  0
 19 20  2  0
 20 21  1  0
 17 22  1  0
 21 22  2  0
M  END
$$$$
