1OWE_675_A_1001
     RDKit          3D

 22 24  0  0  0  0  0  0  0  0999 V2000
   16.9589   20.2359   34.2197 N   0  0  0  0  0  0  0  0  0  0  0  0
   18.2429   20.3924   34.1754 C   0  0  0  0  0  0  0  0  0  0  0  0
   18.8488   21.6706   34.3906 N   0  0  0  0  0  0  0  0  0  0  0  0
   19.0492   19.2070   33.8960 C   0  0  0  0  0  0  0  0  0  0  0  0
   18.4351   18.0177   33.4995 C   0  0  0  0  0  0  0  0  0  0  0  0
   19.1649   16.8788   33.2273 C   0  0  0  0  0  0  0  0  0  0  0  0
   20.5416   16.8780   33.3394 C   0  0  0  0  0  0  0  0  0  0  0  0
   21.2589   15.7333   33.0645 C   0  0  0  0  0  0  0  0  0  0  0  0
   22.6315   15.7900   33.1930 C   0  0  0  0  0  0  0  0  0  0  0  0
   23.2230   16.9583   33.5816 C   0  0  0  0  0  0  0  0  0  0  0  0
   22.5069   18.1217   33.8620 C   0  0  0  0  0  0  0  0  0  0  0  0
   21.1350   18.0588   33.7318 C   0  0  0  0  0  0  0  0  0  0  0  0
   20.4102   19.1999   34.0050 C   0  0  0  0  0  0  0  0  0  0  0  0
   23.3846   14.5778   32.9012 C   0  0  0  0  0  0  0  0  0  0  0  0
   24.6394   14.6083   33.0003 O   0  0  0  0  0  0  0  0  0  0  0  0
   22.7750   13.3585   32.5094 N   0  0  0  0  0  0  0  0  0  0  0  0
   23.6474   12.2512   32.2762 C   0  0  0  0  0  0  0  0  0  0  0  0
   24.0282   11.4134   33.3140 C   0  0  0  0  0  0  0  0  0  0  0  0
   24.8699   10.3443   33.0915 C   0  0  0  0  0  0  0  0  0  0  0  0
   25.3531   10.0881   31.8138 C   0  0  0  0  0  0  0  0  0  0  0  0
   24.9650   10.9351   30.7784 C   0  0  0  0  0  0  0  0  0  0  0  0
   24.1187   12.0124   30.9946 C   0  0  0  0  0  0  0  0  0  0  0  0
  1  2  2  0
  2  3  1  0
  2  4  1  0
  4  5  2  0
  5  6  1  0
  6  7  2  0
  7  8  1  0
  8  9  2  0
  9 10  1  0
 10 11  2  0
  7 12  1  0
 11 12  1  0
  4 13  1  0
 12 13  2  0
  9 14  1  0
 14 15  2  0
 14 16  1  0
 16 17  1  0
 17 18  2  0
 18 19  1  0
 19 20  2  0
 20 21  1  0
 17 22  1  0
 21 22  2  0
M  END
$$$$
