7AVI_S2Q_A_1101
     RDKit          3D

 27 29  0  0  0  0  0  0  0  0999 V2000
  -22.8693    0.2645  -41.8038 C   0  0  0  0  0  0  0  0  0  0  0  0
  -23.0686    1.6457  -41.8483 C   0  0  0  0  0  0  0  0  0  0  0  0
  -24.3202    2.1112  -42.2060 C   0  0  0  0  0  0  0  0  0  0  0  0
  -25.3253    1.2040  -42.5101 C   0  0  0  0  0  0  0  0  0  0  0  0
  -26.6716    1.6943  -42.9396 C   0  0  0  0  0  0  0  0  0  0  0  0
  -28.9520    1.7982  -42.0026 C   0  0  1  0  0  0  0  0  0  0  0  0
  -29.5389    1.9472  -40.6021 C   0  0  0  0  0  0  0  0  0  0  0  0
  -29.5374   -0.6484  -41.7586 C   0  0  0  0  0  0  0  0  0  0  0  0
  -29.6235   -2.1183  -43.6546 C   0  0  0  0  0  0  0  0  0  0  0  0
  -21.5256    3.7267  -41.3868 C   0  0  2  0  0  0  0  0  0  0  0  0
  -20.7999    4.0745  -40.1046 C   0  0  0  0  0  0  0  0  0  0  0  0
  -21.5393    0.0787  -41.4155 O   0  0  0  0  0  0  0  0  0  0  0  0
  -20.9286    1.3658  -41.2375 N   0  0  0  0  0  0  0  0  0  0  0  0
  -21.8274    2.2499  -41.4740 C   0  0  0  0  0  0  0  0  0  0  0  0
  -23.8085   -0.6206  -42.0876 N   0  0  0  0  0  0  0  0  0  0  0  0
  -25.0125   -0.1492  -42.4439 C   0  0  0  0  0  0  0  0  0  0  0  0
  -27.5158    2.0801  -41.9690 N   0  0  0  0  0  0  0  0  0  0  0  0
  -26.9522    1.7963  -44.1286 O   0  0  0  0  0  0  0  0  0  0  0  0
  -29.2015    0.4197  -42.5766 C   0  0  0  0  0  0  0  0  0  0  0  0
  -29.7623   -1.9024  -42.2931 C   0  0  0  0  0  0  0  0  0  0  0  0
  -29.0688    0.2042  -43.9419 C   0  0  0  0  0  0  0  0  0  0  0  0
  -29.2889   -1.0536  -44.4747 C   0  0  0  0  0  0  0  0  0  0  0  0
  -20.7853    4.2153  -42.6161 C   0  0  0  0  0  0  0  0  0  0  0  0
  -29.1602   -1.3024  -46.2186 S   0  0  2  0  0  0  0  0  0  0  0  0
  -28.4718   -2.5471  -46.4169 O   0  0  0  0  0  0  0  0  0  0  0  0
  -28.5876   -0.1143  -46.7736 O   0  0  0  0  0  0  0  0  0  0  0  0
  -30.6181   -1.4564  -46.8545 N   0  0  0  0  0  0  0  0  0  0  0  0
  1  2  1  0
  2  3  2  0
  3  4  1  0
  4  5  1  0
  6  7  1  1
 10 11  1  1
  1 12  1  0
 12 13  1  0
 10 14  1  0
  2 14  1  0
 13 14  2  0
  1 15  2  0
  4 16  2  0
 15 16  1  0
  6 17  1  0
  5 17  1  0
  5 18  2  0
  6 19  1  0
  8 19  2  0
  8 20  1  0
  9 20  2  0
 19 21  1  0
 21 22  2  0
  9 22  1  0
 10 23  1  0
 22 24  1  0
 24 25  2  0
 24 26  2  0
 24 27  1  6
M  END
