8AQL_PLG_B_601
     RDKit          3D

 20 20  0  0  0  0  0  0  0  0999 V2000
    5.2870   55.0080    9.4140 N   0  0  0  0  0  0  0  0  0  0  0  0
    4.7540   55.4350    8.2670 C   0  0  0  0  0  0  0  0  0  0  0  0
    5.3800   56.6500    7.6380 C   0  0  0  0  0  0  0  0  0  0  0  0
    3.6510   54.7270    7.7240 C   0  0  0  0  0  0  0  0  0  0  0  0
    3.1210   55.1860    6.5340 O   0  0  0  0  0  0  0  0  0  0  0  0
    3.1370   53.6150    8.3500 C   0  0  0  0  0  0  0  0  0  0  0  0
    1.9640   52.7920    7.8430 C   0  0  0  0  0  0  0  0  0  0  0  0
    3.7050   53.2030    9.5260 C   0  0  0  0  0  0  0  0  0  0  0  0
    4.7780   53.9330   10.0320 C   0  0  0  0  0  0  0  0  0  0  0  0
    3.1730   52.0370   10.3580 C   0  0  0  0  0  0  0  0  0  0  0  0
    3.4930   50.7260   10.0190 O   0  0  0  0  0  0  0  0  0  0  0  0
    2.5800   49.5690   10.6320 P   0  0  0  0  0  0  0  0  0  0  0  0
    1.1810   49.7340   10.0060 O   0  0  0  0  0  0  0  0  0  0  0  0
    2.5220   49.7950   12.1250 O   0  0  0  0  0  0  0  0  0  0  0  0
    3.2170   48.2970   10.2380 O   0  0  0  0  0  0  0  0  0  0  0  0
   -0.3200   53.4860    5.0300 C   0  0  0  0  0  0  0  0  0  0  0  0
   -1.3130   53.1120    4.3430 O   0  0  0  0  0  0  0  0  0  0  0  0
    0.2380   54.5580    4.7130 O   0  0  0  0  0  0  0  0  0  0  0  0
    0.1680   52.6550    6.2050 C   0  0  0  0  0  0  0  0  0  0  0  0
    1.0180   53.4750    7.0280 N   0  0  0  0  0  0  0  0  0  0  0  0
  1  2  2  0
  2  3  1  0
  2  4  1  0
  4  5  1  0
  4  6  2  0
  6  7  1  0
  6  8  1  0
  1  9  1  0
  8  9  2  0
  8 10  1  0
 10 11  1  0
 11 12  1  0
 12 13  2  0
 12 14  1  0
 12 15  1  0
 16 17  2  0
 16 18  1  0
 16 19  1  0
  7 20  1  0
 19 20  1  0
M  END
$$$$
