8AQL_PLG_B_601
     RDKit          3D

 35 35  0  0  0  0  0  0  0  0999 V2000
    3.7023   55.7946    6.7618 N   0  0  0  0  0  0  0  0  0  0  0  0
    4.4933   55.6919    7.8322 C   0  0  0  0  0  0  0  0  0  0  0  0
    5.6218   56.6812    7.9400 C   0  0  0  0  0  0  0  0  0  0  0  0
    4.2228   54.6746    8.7833 C   0  0  0  0  0  0  0  0  0  0  0  0
    5.0528   54.5927    9.8842 O   0  0  0  0  0  0  0  0  0  0  0  0
    3.1640   53.8107    8.6245 C   0  0  0  0  0  0  0  0  0  0  0  0
    2.7945   52.6962    9.5897 C   0  0  0  0  0  0  0  0  0  0  0  0
    2.3718   53.9409    7.5150 C   0  0  0  0  0  0  0  0  0  0  0  0
    2.6789   54.9444    6.5990 C   0  0  0  0  0  0  0  0  0  0  0  0
    1.2208   52.9924    7.1830 C   0  0  0  0  0  0  0  0  0  0  0  0
    0.1385   53.4351    6.4288 O   0  0  0  0  0  0  0  0  0  0  0  0
    0.1148   53.0397    4.8825 P   0  0  2  0  0  5  0  0  0  0  0  0
    1.3875   53.6417    4.2547 O   0  0  0  0  0  0  0  0  0  0  0  0
   -1.1206   53.6706    4.2832 O   0  0  0  0  0  0  0  0  0  0  0  0
    0.1205   51.5642    4.8402 O   0  0  0  0  0  0  0  0  0  0  0  0
    5.3419   54.1294   10.1571 C   0  0  0  0  0  0  0  0  0  0  0  0
    4.8021   55.0929   10.7722 O   0  0  0  0  0  0  0  0  0  0  0  0
    6.1349   54.4001    9.2304 O   0  0  0  0  0  0  0  0  0  0  0  0
    5.0345   52.6923   10.5436 C   0  0  0  0  0  0  0  0  0  0  0  0
    3.6150   52.5627   10.7450 N   0  0  0  0  0  0  0  0  0  0  0  0
    5.6026   57.3376    7.0953 H   0  0  0  0  0  0  0  0  0  0  0  0
    6.5545   56.1571    7.9635 H   0  0  0  0  0  0  0  0  0  0  0  0
    5.5110   57.2522    8.8380 H   0  0  0  0  0  0  0  0  0  0  0  0
    5.7693   55.1894    9.9761 H   0  0  0  0  0  0  0  0  0  0  0  0
    2.8366   51.7722    9.0518 H   0  0  0  0  0  0  0  0  0  0  0  0
    1.8227   52.9498    9.9587 H   0  0  0  0  0  0  0  0  0  0  0  0
    2.0911   55.0376    5.7560 H   0  0  0  0  0  0  0  0  0  0  0  0
    0.8251   52.6512    8.1168 H   0  0  0  0  0  0  0  0  0  0  0  0
    1.6810   52.2687    6.5433 H   0  0  0  0  0  0  0  0  0  0  0  0
   -1.0536   54.6363    4.3463 H   0  0  0  0  0  0  0  0  0  0  0  0
    0.9395   51.2325    5.2403 H   0  0  0  0  0  0  0  0  0  0  0  0
    6.5522   53.7095    8.7541 H   0  0  0  0  0  0  0  0  0  0  0  0
    5.5506   52.4441   11.4475 H   0  0  0  0  0  0  0  0  0  0  0  0
    5.3550   52.0292    9.7674 H   0  0  0  0  0  0  0  0  0  0  0  0
    3.4417   51.6397   11.1432 H   0  0  0  0  0  0  0  0  0  0  0  0
  1  2  4  0
  2  3  1  0
  2  4  4  0
  4  5  1  0
  4  6  4  0
  6  7  1  0
  6  8  4  0
  1  9  4  0
  8  9  4  0
  8 10  1  0
 10 11  1  0
 12 11  1  1
 12 13  2  0
 12 14  1  0
 12 15  1  0
 16 17  2  0
 16 18  1  0
 16 19  1  0
  7 20  1  0
 19 20  1  0
  3 21  1  0
  3 22  1  0
  3 23  1  0
  5 24  1  0
  7 25  1  0
  7 26  1  0
  9 27  1  0
 10 28  1  0
 10 29  1  0
 14 30  1  0
 15 31  1  0
 18 32  1  0
 19 33  1  0
 19 34  1  0
 20 35  1  0
M  END
