1Q1G_MTI_F_306
     RDKit          3D

 20 22  0  0  0  0  0  0  0  0999 V2000
    9.8570    0.9531   95.4529 C   0  0  0  0  0  0  0  0  0  0  0  0
    8.3801    0.5057   94.4842 S   0  0  0  0  0  0  0  0  0  0  0  0
    8.8322    0.6114   92.7587 C   0  0  0  0  0  0  0  0  0  0  0  0
    8.5430    1.9141   92.1119 C   0  0  1  0  0  0  0  0  0  0  0  0
    8.0460    2.9343   92.9890 N   0  0  0  0  0  0  0  0  0  0  0  0
    9.0741    3.9347   91.1226 C   0  0  2  0  0  0  0  0  0  0  0  0
    8.6230    3.7836   89.7993 O   0  0  0  0  0  0  0  0  0  0  0  0
    9.7280    2.6016   91.5167 C   0  0  2  0  0  0  0  0  0  0  0  0
   10.2919    1.9716   90.4352 O   0  0  0  0  0  0  0  0  0  0  0  0
    7.8599    4.0185   92.0311 C   0  0  2  0  0  0  0  0  0  0  0  0
    7.6717    5.3352   92.6500 C   0  0  0  0  0  0  0  0  0  0  0  0
    6.4468    5.9315   92.9251 C   0  0  0  0  0  0  0  0  0  0  0  0
    6.6389    7.1364   93.4931 N   0  0  0  0  0  0  0  0  0  0  0  0
    7.9461    7.3491   93.5991 C   0  0  0  0  0  0  0  0  0  0  0  0
    8.6641    8.4067   94.1001 C   0  0  0  0  0  0  0  0  0  0  0  0
    8.0677    9.3971   94.5636 O   0  0  0  0  0  0  0  0  0  0  0  0
   10.0059    8.3572   94.0829 N   0  0  0  0  0  0  0  0  0  0  0  0
   10.6119    7.2766   93.5770 C   0  0  0  0  0  0  0  0  0  0  0  0
    9.9441    6.2237   93.0784 N   0  0  0  0  0  0  0  0  0  0  0  0
    8.6180    6.2429   93.0815 C   0  0  0  0  0  0  0  0  0  0  0  0
  1  2  1  1
  3  2  1  1
  4  3  1  1
  4  5  1  0
  6  7  1  6
  4  8  1  0
  6  8  1  0
  8  9  1  6
  5 10  1  1
  6 10  1  0
 10 11  1  1
 11 12  2  0
 12 13  1  0
 13 14  1  0
 14 15  1  0
 15 16  2  0
 15 17  1  0
 17 18  1  0
 18 19  2  0
 11 20  1  0
 14 20  2  0
 19 20  1  0
M  CHG  1   5   1
M  END
$$$$
