5SIS_JSM_A_803
     RDKit          3D

 57 60  0  0  0  0  0  0  0  0999 V2000
   -0.7553    3.7485   -0.0503 C   0  0  0  0  0  0  0  0  0  0  0  0
   -0.8107    1.5616    1.0351 C   0  0  0  0  0  0  0  0  0  0  0  0
   -0.4620    0.2153    0.8590 C   0  0  0  0  0  0  0  0  0  0  0  0
   -0.2928    5.5447   -1.8314 C   0  0  0  0  0  0  0  0  0  0  0  0
    1.8412   -3.7559   -4.0567 C   0  0  0  0  0  0  0  0  0  0  0  0
   -0.6671   -4.9704    2.8920 C   0  0  0  0  0  0  0  0  0  0  0  0
    1.5944   -5.5128    1.8942 C   0  0  0  0  0  0  0  0  0  0  0  0
    0.2082    5.7969   -3.1229 C   0  0  0  0  0  0  0  0  0  0  0  0
   -0.8051    6.6213   -1.0805 C   0  0  0  0  0  0  0  0  0  0  0  0
   -0.5688   -3.5786    3.5217 C   0  0  0  0  0  0  0  0  0  0  0  0
    0.5578   -4.6994   -0.7869 C   0  0  0  0  0  0  0  0  0  0  0  0
    0.7836   -3.7533   -1.7740 C   0  0  0  0  0  0  0  0  0  0  0  0
    0.0552    2.0712   -1.1183 C   0  0  0  0  0  0  0  0  0  0  0  0
    0.2415    3.1039   -1.9631 N   0  0  0  0  0  0  0  0  0  0  0  0
    0.4188   -2.3215   -1.7295 C   0  0  0  0  0  0  0  0  0  0  0  0
   -0.5368    2.4295    0.0305 N   0  0  0  0  0  0  0  0  0  0  0  0
   -0.2402   -4.5470    0.4441 C   0  0  0  0  0  0  0  0  0  0  0  0
   -0.2723    4.1643   -1.2881 C   0  0  0  0  0  0  0  0  0  0  0  0
    0.4254    0.7488   -1.3518 C   0  0  0  0  0  0  0  0  0  0  0  0
    1.4130   -4.3642   -2.8017 N   0  0  0  0  0  0  0  0  0  0  0  0
    1.5816   -5.6477   -2.5237 N   0  0  0  0  0  0  0  0  0  0  0  0
    1.0681   -5.8780   -1.2994 C   0  0  0  0  0  0  0  0  0  0  0  0
    0.1433   -0.2044   -0.3476 C   0  0  0  0  0  0  0  0  0  0  0  0
    0.5164   -1.5840   -0.4976 N   0  0  0  0  0  0  0  0  0  0  0  0
    0.2093   -5.0637    1.7166 N   0  0  0  0  0  0  0  0  0  0  0  0
    0.0048   -1.7615   -2.7795 O   0  0  0  0  0  0  0  0  0  0  0  0
   -1.3336   -3.9219    0.3716 O   0  0  0  0  0  0  0  0  0  0  0  0
   -1.4258   -3.5001    4.7094 N   0  0  0  0  0  0  0  0  0  0  0  0
   -1.2826   -2.1924    5.3505 C   0  0  0  0  0  0  0  0  0  0  0  0
   -0.8135    7.9149   -1.6118 C   0  0  0  0  0  0  0  0  0  0  0  0
    0.1968    7.0924   -3.6485 C   0  0  0  0  0  0  0  0  0  0  0  0
   -0.3133    8.1504   -2.8939 C   0  0  0  0  0  0  0  0  0  0  0  0
   -1.2210    4.3448    0.7230 H   0  0  0  0  0  0  0  0  0  0  0  0
   -1.2822    1.8980    1.9500 H   0  0  0  0  0  0  0  0  0  0  0  0
   -0.6669   -0.4982    1.6468 H   0  0  0  0  0  0  0  0  0  0  0  0
    0.9545   -3.5326   -4.6858 H   0  0  0  0  0  0  0  0  0  0  0  0
    2.5075   -4.4500   -4.6109 H   0  0  0  0  0  0  0  0  0  0  0  0
    2.3998   -2.8184   -3.8532 H   0  0  0  0  0  0  0  0  0  0  0  0
   -0.3829   -5.7376    3.6452 H   0  0  0  0  0  0  0  0  0  0  0  0
   -1.7183   -5.1839    2.5994 H   0  0  0  0  0  0  0  0  0  0  0  0
    1.8422   -5.6382    2.9697 H   0  0  0  0  0  0  0  0  0  0  0  0
    1.7434   -6.4898    1.3926 H   0  0  0  0  0  0  0  0  0  0  0  0
    2.2952   -4.7621    1.4707 H   0  0  0  0  0  0  0  0  0  0  0  0
    0.6087    4.9932   -3.7284 H   0  0  0  0  0  0  0  0  0  0  0  0
   -1.1978    6.4736   -0.0846 H   0  0  0  0  0  0  0  0  0  0  0  0
    0.4904   -3.3945    3.8062 H   0  0  0  0  0  0  0  0  0  0  0  0
   -0.8745   -2.8115    2.7768 H   0  0  0  0  0  0  0  0  0  0  0  0
    0.9392    0.4831   -2.2656 H   0  0  0  0  0  0  0  0  0  0  0  0
    1.0196   -6.8551   -0.8390 H   0  0  0  0  0  0  0  0  0  0  0  0
    0.8121   -2.0932    0.3647 H   0  0  0  0  0  0  0  0  0  0  0  0
   -2.4225   -3.5865    4.3992 H   0  0  0  0  0  0  0  0  0  0  0  0
   -1.5637   -1.3741    4.6514 H   0  0  0  0  0  0  0  0  0  0  0  0
   -0.2377   -2.0453    5.6984 H   0  0  0  0  0  0  0  0  0  0  0  0
   -1.9498   -2.1424    6.2366 H   0  0  0  0  0  0  0  0  0  0  0  0
   -1.2084    8.7363   -1.0277 H   0  0  0  0  0  0  0  0  0  0  0  0
    0.5840    7.2759   -4.6427 H   0  0  0  0  0  0  0  0  0  0  0  0
   -0.3210    9.1526   -3.3025 H   0  0  0  0  0  0  0  0  0  0  0  0
  2  3  2  0
  4  8  2  0
  4  9  1  0
  6 10  1  0
 11 12  2  0
 13 14  2  0
 12 15  1  0
 13 16  1  0
  1 16  1  0
  2 16  1  0
 11 17  1  0
 14 18  1  0
  1 18  2  0
  4 18  1  0
 13 19  1  0
 12 20  1  0
  5 20  1  0
 20 21  1  0
 11 22  1  0
 21 22  2  0
 19 23  2  0
  3 23  1  0
 15 24  1  0
 23 24  1  0
 17 25  1  0
  7 25  1  0
  6 25  1  0
 15 26  2  0
 17 27  2  0
 10 28  1  0
 28 29  1  0
  9 30  2  0
  8 31  1  0
 30 32  1  0
 31 32  2  0
  1 33  1  0
  2 34  1  0
  3 35  1  0
  5 36  1  0
  5 37  1  0
  5 38  1  0
  6 39  1  0
  6 40  1  0
  7 41  1  0
  7 42  1  0
  7 43  1  0
  8 44  1  0
  9 45  1  0
 10 46  1  0
 10 47  1  0
 19 48  1  0
 22 49  1  0
 24 50  1  0
 28 51  1  0
 29 52  1  0
 29 53  1  0
 29 54  1  0
 30 55  1  0
 31 56  1  0
 32 57  1  0
M  END
