6YDY_K73_A_302
     RDKit          3D

 28 30  0  0  0  0  0  0  0  0999 V2000
   18.9414    0.1175    0.7652 N   0  0  0  0  0  0  0  0  0  0  0  0
   19.9016    1.1748    0.5600 C   0  0  0  0  0  0  0  0  0  0  0  0
   26.6291    2.8109    4.2254 O   0  0  0  0  0  0  0  0  0  0  0  0
   20.8585    1.3287    1.6869 C   0  0  0  0  0  0  0  0  0  0  0  0
   28.7632    2.1837    2.2592 C   0  0  0  0  0  0  0  0  0  0  0  0
   26.7972    1.6877    0.6240 C   0  0  0  0  0  0  0  0  0  0  0  0
   27.3718    2.2292   -0.6216 C   0  0  1  0  0  0  0  0  0  0  0  0
   27.7872    1.1740   -1.6211 C   0  0  0  0  0  0  0  0  0  0  0  0
   28.6260    1.8450   -2.6494 C   0  0  0  0  0  0  0  0  0  0  0  0
   28.7457    3.2282   -2.5260 C   0  0  0  0  0  0  0  0  0  0  0  0
   29.4920    3.9823   -3.4058 C   0  0  0  0  0  0  0  0  0  0  0  0
   30.1257    3.3091   -4.4277 C   0  0  0  0  0  0  0  0  0  0  0  0
   30.0138    1.9406   -4.5588 C   0  0  0  0  0  0  0  0  0  0  0  0
   29.2602    1.1815   -3.6701 C   0  0  0  0  0  0  0  0  0  0  0  0
   20.5794    0.8729    2.9691 C   0  0  0  0  0  0  0  0  0  0  0  0
   22.9754    2.1197    2.4195 C   0  0  0  0  0  0  0  0  0  0  0  0
   22.0545    1.9514    1.4110 C   0  0  0  0  0  0  0  0  0  0  0  0
   21.5312    1.0560    3.9770 C   0  0  0  0  0  0  0  0  0  0  0  0
   22.7350    1.6757    3.7268 C   0  0  0  0  0  0  0  0  0  0  0  0
   23.7887    1.9151    4.7115 C   0  0  0  0  0  0  0  0  0  0  0  0
   26.1794    1.6614    3.9251 C   0  0  0  0  0  0  0  0  0  0  0  0
   26.9492    0.8066    2.9779 C   0  0  2  0  0  0  0  0  0  0  0  0
   28.2276    0.3905    3.6642 C   0  0  0  0  0  0  0  0  0  0  0  0
   28.9284    1.7597    3.7222 C   0  0  0  0  0  0  0  0  0  0  0  0
   24.9780    1.1364    4.4406 N   0  0  0  0  0  0  0  0  0  0  0  0
   27.4866    1.5840    1.8620 N   0  0  0  0  0  0  0  0  0  0  0  0
   26.3325    3.0163   -1.2841 N   0  0  0  0  0  0  0  0  0  0  0  0
   25.5800    1.2942    0.5356 O   0  0  0  0  0  0  0  0  0  0  0  0
  2  1  1  6
  2  4  1  0
  6  7  1  0
  7  8  1  0
  8  9  1  1
  9 10  2  0
 10 11  1  0
 11 12  2  0
 12 13  1  0
  9 14  1  0
 13 14  2  0
  4 15  2  0
 16 17  2  0
  4 17  1  0
 15 18  1  0
 18 19  2  0
 16 19  1  0
 19 20  1  0
  3 21  2  0
 22 21  1  1
 23 22  1  1
 23 24  1  0
 24  5  1  1
 20 25  1  6
 21 25  1  0
  5 26  1  6
 22 26  1  0
  6 26  1  0
  7 27  1  6
  6 28  2  0
M  END
$$$$
