7M41_YQG_A_201
     RDKit          3D

 48 52  0  0  0  0  0  0  0  0999 V2000
  -21.1844  -41.5555   -1.8202 N   0  0  0  0  0  4  0  0  0  0  0  0
  -23.2457  -40.3019    0.8120 N   0  0  0  0  0  0  0  0  0  0  0  0
  -18.9674  -40.9363   -2.3990 C   0  0  0  0  0  0  0  0  0  0  0  0
  -20.0484  -40.7592   -1.5869 C   0  0  0  0  0  0  0  0  0  0  0  0
  -19.9689  -39.8023   -0.5398 C   0  0  0  0  0  0  0  0  0  0  0  0
  -22.2627  -41.4016   -1.0103 C   0  0  0  0  0  0  0  0  0  0  0  0
  -21.1397  -39.6889    0.2808 C   0  0  0  0  0  0  0  0  0  0  0  0
  -23.6210  -38.7290    2.8087 C   0  0  0  0  0  0  0  0  0  0  0  0
  -15.3928  -36.2630   -0.7985 C   0  0  0  0  0  0  0  0  0  0  0  0
  -14.0022  -38.3086   -0.8075 C   0  0  0  0  0  0  0  0  0  0  0  0
  -17.8409  -36.2198   -1.0116 C   0  0  0  0  0  0  0  0  0  0  0  0
  -14.1544  -35.8026    3.6733 C   0  0  0  0  0  0  0  0  0  0  0  0
  -18.8261  -39.0363   -0.2989 C   0  0  0  0  0  0  0  0  0  0  0  0
  -16.4246  -38.4805   -1.0236 C   0  0  0  0  0  0  0  0  0  0  0  0
  -16.4992  -36.9534   -0.9321 C   0  0  0  0  0  0  0  0  0  0  0  0
  -14.0647  -36.9986   -0.7402 C   0  0  0  0  0  0  0  0  0  0  0  0
  -15.2785  -39.1136   -0.9649 C   0  0  0  0  0  0  0  0  0  0  0  0
  -12.5481  -36.4733    2.2160 C   0  0  0  0  0  0  0  0  0  0  0  0
  -13.2693  -36.4992    4.3626 C   0  0  0  0  0  0  0  0  0  0  0  0
  -17.7399  -39.2341   -1.1413 C   0  0  0  0  0  0  0  0  0  0  0  0
  -17.8518  -40.1782   -2.1694 C   0  0  0  0  0  0  0  0  0  0  0  0
  -22.8032  -39.3318    1.6736 C   0  0  0  0  0  0  0  0  0  0  0  0
  -22.2289  -40.4563    0.0361 N   0  0  0  0  0  0  0  0  0  0  0  0
  -21.4536  -38.9091    1.3365 N   0  0  0  0  0  0  0  0  0  0  0  0
  -12.8421  -36.2727   -0.5268 N   0  0  0  0  0  0  0  0  0  0  0  0
  -12.1623  -36.9584    3.3600 N   0  0  0  0  0  4  0  0  0  0  0  0
  -13.7080  -35.7942    2.4196 N   0  0  0  0  0  0  0  0  0  0  0  0
  -23.3828  -42.1789   -1.2271 O   0  0  0  0  0  0  0  0  0  0  0  0
  -10.6551  -35.6037    0.6507 O   0  0  0  0  0  0  0  0  0  0  0  0
  -11.0698  -37.9440    0.5014 O   0  0  0  0  0  0  0  0  0  0  0  0
  -11.7021  -36.6378    0.6415 S   0  0  1  0  0  6  0  0  0  0  0  0
  -16.5128  -40.4775   -3.2887 Cl  0  0  0  0  0  0  0  0  0  0  0  0
  -21.1970  -42.2103   -2.5553 H   0  0  0  0  0  0  0  0  0  0  0  0
  -18.9901  -41.6249   -3.1674 H   0  0  0  0  0  0  0  0  0  0  0  0
  -24.5769  -39.2079    2.8530 H   0  0  0  0  0  0  0  0  0  0  0  0
  -23.7545  -37.6817    2.6350 H   0  0  0  0  0  0  0  0  0  0  0  0
  -23.1061  -38.8742    3.7355 H   0  0  0  0  0  0  0  0  0  0  0  0
  -15.4234  -35.2334   -0.7338 H   0  0  0  0  0  0  0  0  0  0  0  0
  -13.0899  -38.7879   -0.7537 H   0  0  0  0  0  0  0  0  0  0  0  0
  -17.6765  -35.1657   -0.9280 H   0  0  0  0  0  0  0  0  0  0  0  0
  -18.4738  -36.5464   -0.2131 H   0  0  0  0  0  0  0  0  0  0  0  0
  -18.3098  -36.4345   -1.9490 H   0  0  0  0  0  0  0  0  0  0  0  0
  -15.0135  -35.3574    4.0321 H   0  0  0  0  0  0  0  0  0  0  0  0
  -18.7904  -38.3520    0.4728 H   0  0  0  0  0  0  0  0  0  0  0  0
  -15.2447  -40.1433   -1.0249 H   0  0  0  0  0  0  0  0  0  0  0  0
  -13.3024  -36.7022    5.3739 H   0  0  0  0  0  0  0  0  0  0  0  0
  -12.6624  -35.5022   -1.1127 H   0  0  0  0  0  0  0  0  0  0  0  0
  -11.3574  -37.4925    3.5502 H   0  0  0  0  0  0  0  0  0  0  0  0
  1  4  4  0
  3  4  4  0
  4  5  4  0
  1  6  4  0
  5  7  4  0
  5 13  4  0
  9 15  4  0
 11 15  1  0
 14 15  4  0
  9 16  4  0
 10 16  4  0
 10 17  4  0
 14 17  4  0
 12 19  4  0
 13 20  4  0
 14 20  1  0
 20 21  4  0
  3 21  4  0
  8 22  1  0
  2 22  4  0
  2 23  4  0
  7 23  4  0
  6 23  4  0
 22 24  4  0
  7 24  4  0
 16 25  1  0
 19 26  4  0
 18 26  4  0
 12 27  4  0
 18 27  4  0
  6 28  2  0
 18 31  1  0
 30 31  2  0
 29 31  2  0
 31 25  1  6
 21 32  1  0
  1 33  1  0
  3 34  1  0
  8 35  1  0
  8 36  1  0
  8 37  1  0
  9 38  1  0
 10 39  1  0
 11 40  1  0
 11 41  1  0
 11 42  1  0
 12 43  1  0
 13 44  1  0
 17 45  1  0
 19 46  1  0
 25 47  1  0
 26 48  1  0
M  CHG  2   1   1  26   1
M  END
