7WPW_F15_A_200
     RDKit          3D

 47 46  0  0  0  0  0  0  0  0999 V2000
    6.0057  -20.2172   -2.1655 C   0  0  0  0  0  0  0  0  0  0  0  0
    5.0115  -21.1904   -2.1549 O   0  0  0  0  0  0  0  0  0  0  0  0
    7.1203  -20.4496   -1.6258 O   0  0  0  0  0  0  0  0  0  0  0  0
    5.7573  -18.9049   -2.8438 C   0  0  2  0  0  0  0  0  0  0  0  0
    6.9473  -17.9489   -2.6868 C   0  0  1  0  0  0  0  0  0  0  0  0
    8.1349  -20.1967   -2.9897 C   0  0  1  0  0  0  0  0  0  0  0  0
    8.5526  -20.6355   -4.4045 C   0  0  2  0  0  0  0  0  0  0  0  0
    8.2961  -18.6843   -2.7691 C   0  0  1  0  0  0  0  0  0  0  0  0
    7.5457  -21.6045   -5.0488 C   0  0  2  0  0  0  0  0  0  0  0  0
    6.0716  -21.1633   -4.9591 C   0  0  2  0  0  0  0  0  0  0  0  0
    5.5049  -21.1740   -3.5212 C   0  0  2  0  0  0  0  0  0  0  0  0
    6.4686  -20.5729   -2.4821 C   0  0  1  0  0  0  0  0  0  0  0  0
    6.1663  -21.0669   -1.0563 C   0  0  2  0  0  0  0  0  0  0  0  0
    7.3017  -21.9243   -0.4752 C   0  0  2  0  0  0  0  0  0  0  0  0
    7.0432  -23.4308   -0.6245 C   0  0  2  0  0  0  0  0  0  0  0  0
    8.2541  -24.1351   -1.2475 C   0  0  2  0  0  0  0  0  0  0  0  0
    8.4981  -23.6541   -2.6750 C   0  0  1  0  0  0  0  0  0  0  0  0
    4.6801  -21.6037   -3.0183 H   0  0  0  0  0  0  0  0  0  0  0  0
    4.8335  -18.4329   -2.4430 H   0  0  0  0  0  0  0  0  0  0  0  0
    5.5912  -19.0966   -3.9256 H   0  0  0  0  0  0  0  0  0  0  0  0
    6.8958  -17.1565   -3.4658 H   0  0  0  0  0  0  0  0  0  0  0  0
    6.8556  -17.4581   -1.6953 H   0  0  0  0  0  0  0  0  0  0  0  0
    7.0818  -20.4965   -2.7962 H   0  0  0  0  0  0  0  0  0  0  0  0
    8.7702  -20.7082   -2.2379 H   0  0  0  0  0  0  0  0  0  0  0  0
    9.5667  -21.0859   -4.3918 H   0  0  0  0  0  0  0  0  0  0  0  0
    8.6057  -19.7381   -5.0559 H   0  0  0  0  0  0  0  0  0  0  0  0
    8.9167  -18.2493   -3.5830 H   0  0  0  0  0  0  0  0  0  0  0  0
    8.8467  -18.5396   -1.8145 H   0  0  0  0  0  0  0  0  0  0  0  0
    7.6493  -22.5985   -4.5609 H   0  0  0  0  0  0  0  0  0  0  0  0
    7.8125  -21.7448   -6.1191 H   0  0  0  0  0  0  0  0  0  0  0  0
    5.4801  -21.8859   -5.5629 H   0  0  0  0  0  0  0  0  0  0  0  0
    5.9323  -20.1793   -5.4508 H   0  0  0  0  0  0  0  0  0  0  0  0
    5.2483  -22.2128   -3.2186 H   0  0  0  0  0  0  0  0  0  0  0  0
    4.5495  -20.6044   -3.4982 H   0  0  0  0  0  0  0  0  0  0  0  0
    7.4994  -20.8820   -2.7569 H   0  0  0  0  0  0  0  0  0  0  0  0
    6.4314  -19.4647   -2.5156 H   0  0  0  0  0  0  0  0  0  0  0  0
    5.2180  -21.6476   -1.0530 H   0  0  0  0  0  0  0  0  0  0  0  0
    6.0233  -20.1958   -0.3825 H   0  0  0  0  0  0  0  0  0  0  0  0
    7.3953  -21.6807    0.6060 H   0  0  0  0  0  0  0  0  0  0  0  0
    8.2634  -21.6550   -0.9651 H   0  0  0  0  0  0  0  0  0  0  0  0
    6.1587  -23.5950   -1.2765 H   0  0  0  0  0  0  0  0  0  0  0  0
    6.8363  -23.8721    0.3752 H   0  0  0  0  0  0  0  0  0  0  0  0
    8.0825  -25.2336   -1.2636 H   0  0  0  0  0  0  0  0  0  0  0  0
    9.1615  -23.9293   -0.6387 H   0  0  0  0  0  0  0  0  0  0  0  0
    7.6081  -23.1091   -3.0558 H   0  0  0  0  0  0  0  0  0  0  0  0
    9.3694  -22.9661   -2.6915 H   0  0  0  0  0  0  0  0  0  0  0  0
    8.7133  -24.5162   -3.3414 H   0  0  0  0  0  0  0  0  0  0  0  0
  1  2  1  0
  1  3  2  0
  1  4  1  0
  4  5  1  0
  6  7  1  0
  5  8  1  0
  6  8  1  0
  7  9  1  0
  9 10  1  0
 10 11  1  0
 11 12  1  0
 12 13  1  0
 13 14  1  0
 14 15  1  0
 15 16  1  0
 16 17  1  0
  2 18  1  0
  4 19  1  1
  4 20  1  0
  5 21  1  6
  5 22  1  0
  6 23  1  1
  6 24  1  0
  7 25  1  1
  7 26  1  0
  8 27  1  6
  8 28  1  0
  9 29  1  1
  9 30  1  0
 10 31  1  6
 10 32  1  0
 11 33  1  1
 11 34  1  0
 12 35  1  6
 12 36  1  0
 13 37  1  6
 13 38  1  0
 14 39  1  1
 14 40  1  0
 15 41  1  6
 15 42  1  0
 16 43  1  6
 16 44  1  0
 17 45  1  6
 17 46  1  0
 17 47  1  0
M  END
