1YWR_LI9_A_361
     RDKit          3D

 35 39  0  0  0  0  0  0  0  0999 V2000
    0.5358   -3.6242   22.5906 C   0  0  0  0  0  0  0  0  0  0  0  0
   -1.9639   -2.7258   23.3927 C   0  0  0  0  0  0  0  0  0  0  0  0
    0.2627   -2.2617   22.5390 C   0  0  0  0  0  0  0  0  0  0  0  0
   -0.4336   -4.4976   23.0361 C   0  0  0  0  0  0  0  0  0  0  0  0
   -1.6915   -4.0633   23.4416 C   0  0  0  0  0  0  0  0  0  0  0  0
   -0.9798   -1.8432   22.9410 C   0  0  0  0  0  0  0  0  0  0  0  0
    1.2825   -1.3293   22.0744 C   0  0  0  0  0  0  0  0  0  0  0  0
   -2.6510   -4.9091   23.8802 F   0  0  0  0  0  0  0  0  0  0  0  0
    2.7874   -0.3668   20.8318 N   0  0  0  0  0  0  0  0  0  0  0  0
    3.6689   -0.0698   19.7343 C   0  0  2  0  0  0  0  0  0  0  0  0
    3.4770    1.4939   22.2451 C   0  0  0  0  0  0  0  0  0  0  0  0
    1.7610   -0.2408   22.7715 C   0  0  0  0  0  0  0  0  0  0  0  0
    1.4114    0.2715   24.0803 C   0  0  0  0  0  0  0  0  0  0  0  0
    1.7200   -2.2864   19.9848 O   0  0  0  0  0  0  0  0  0  0  0  0
    1.9269   -1.4129   20.8499 C   0  0  0  0  0  0  0  0  0  0  0  0
    2.6851    0.3197   21.9662 N   0  0  0  0  0  0  0  0  0  0  0  0
    5.0809   -1.6791   18.4441 C   0  0  0  0  0  0  0  0  0  0  0  0
    4.0969    0.2409   17.3735 C   0  0  0  0  0  0  0  0  0  0  0  0
    3.0271   -0.2106   18.3746 C   0  0  0  0  0  0  0  0  0  0  0  0
    4.9095   -0.9369   19.7427 C   0  0  0  0  0  0  0  0  0  0  0  0
    5.0683   -0.8259   17.2980 N   0  0  0  0  0  0  0  0  0  0  0  0
    2.0150    1.4048   24.4820 N   0  0  0  0  0  0  0  0  0  0  0  0
    0.2159    0.2104   26.1721 C   0  0  0  0  0  0  0  0  0  0  0  0
    2.4068    3.1400   26.0606 N   0  0  0  0  0  0  0  0  0  0  0  0
    0.5089   -0.3231   24.9341 C   0  0  0  0  0  0  0  0  0  0  0  0
    1.7408    1.9379   25.6853 C   0  0  0  0  0  0  0  0  0  0  0  0
    0.8587    1.3520   26.5137 N   0  0  0  0  0  0  0  0  0  0  0  0
    3.4653    3.7272   25.2527 C   0  0  2  0  0  0  0  0  0  0  0  0
    4.6296    2.8320   25.2330 C   0  0  0  0  0  0  0  0  0  0  0  0
    3.7944    5.0897   25.8399 C   0  0  0  0  0  0  0  0  0  0  0  0
    6.7769    1.0422   25.3972 C   0  0  0  0  0  0  0  0  0  0  0  0
    4.7838    1.9487   26.3073 C   0  0  0  0  0  0  0  0  0  0  0  0
    5.5782    2.8029   24.2336 C   0  0  0  0  0  0  0  0  0  0  0  0
    6.6292    1.9060   24.3434 C   0  0  0  0  0  0  0  0  0  0  0  0
    5.8364    1.0695   26.3903 C   0  0  0  0  0  0  0  0  0  0  0  0
  1  3  2  0
  1  4  1  0
  2  5  1  0
  4  5  2  0
  2  6  2  0
  3  6  1  0
  3  7  1  0
  5  8  1  0
 10  9  1  1
  7 12  2  0
 12 13  1  0
  7 15  1  0
  9 15  1  0
 14 15  2  0
  9 16  1  0
 11 16  1  0
 12 16  1  0
 10 19  1  0
 18 19  1  0
 10 20  1  0
 17 20  1  0
 17 21  1  0
 18 21  1  0
 13 22  2  0
 13 25  1  0
 23 25  2  0
 22 26  1  0
 24 26  1  0
 23 27  1  0
 26 27  2  0
 24 28  1  0
 28 29  1  0
 28 30  1  1
 29 32  1  0
 29 33  2  0
 31 34  2  0
 33 34  1  0
 31 35  1  0
 32 35  2  0
M  END
$$$$
