1YWR_LI9_A_361
     RDKit          3D

 35 39  0  0  0  0  0  0  0  0999 V2000
    3.4649   -0.8925   16.9687 C   0  0  0  0  0  0  0  0  0  0  0  0
    6.0253    0.1083   17.3455 C   0  0  0  0  0  0  0  0  0  0  0  0
    4.0315   -0.9559   18.2370 C   0  0  0  0  0  0  0  0  0  0  0  0
    4.1806   -0.3376   15.9291 C   0  0  0  0  0  0  0  0  0  0  0  0
    5.4650    0.1683   16.1014 C   0  0  0  0  0  0  0  0  0  0  0  0
    5.2978   -0.4544   18.3971 C   0  0  0  0  0  0  0  0  0  0  0  0
    3.2813   -1.5359   19.3442 C   0  0  0  0  0  0  0  0  0  0  0  0
    6.1776    0.7147   15.0904 F   0  0  0  0  0  0  0  0  0  0  0  0
    2.1887   -2.9577   20.5771 N   0  0  0  0  0  0  0  0  0  0  0  0
    1.5597   -4.1657   21.0405 C   0  0  2  0  0  0  0  0  0  0  0  0
    1.6271   -1.5971   22.5183 C   0  0  0  0  0  0  0  0  0  0  0  0
    2.9004   -0.8796   20.4948 C   0  0  0  0  0  0  0  0  0  0  0  0
    3.1238    0.4862   20.9219 C   0  0  0  0  0  0  0  0  0  0  0  0
    3.0170   -3.7032   18.5035 O   0  0  0  0  0  0  0  0  0  0  0  0
    2.8348   -2.8474   19.3915 C   0  0  0  0  0  0  0  0  0  0  0  0
    2.2308   -1.7955   21.2222 N   0  0  0  0  0  0  0  0  0  0  0  0
    0.0500   -5.6822   19.7485 C   0  0  0  0  0  0  0  0  0  0  0  0
    1.5583   -6.5566   21.4103 C   0  0  0  0  0  0  0  0  0  0  0  0
    2.3515   -5.4196   20.7555 C   0  0  0  0  0  0  0  0  0  0  0  0
    0.1787   -4.3571   20.4514 C   0  0  0  0  0  0  0  0  0  0  0  0
    0.4084   -6.7958   20.5689 N   0  0  0  0  0  0  0  0  0  0  0  0
    3.1365    0.7257   22.2458 N   0  0  0  0  0  0  0  0  0  0  0  0
    3.5280    2.8299   20.5315 C   0  0  0  0  0  0  0  0  0  0  0  0
    3.3421    2.1674   24.1261 N   0  0  0  0  0  0  0  0  0  0  0  0
    3.3211    1.5475   20.0666 C   0  0  0  0  0  0  0  0  0  0  0  0
    3.3367    1.9693   22.7153 C   0  0  0  0  0  0  0  0  0  0  0  0
    3.5286    3.0008   21.8746 N   0  0  0  0  0  0  0  0  0  0  0  0
    3.0957    1.0826   25.0645 C   0  0  2  0  0  0  0  0  0  0  0  0
    1.6700    0.7300   25.0528 C   0  0  0  0  0  0  0  0  0  0  0  0
    3.5662    1.5401   26.4351 C   0  0  0  0  0  0  0  0  0  0  0  0
   -0.9862   -0.1559   25.0892 C   0  0  0  0  0  0  0  0  0  0  0  0
    1.3276   -0.5875   25.3772 C   0  0  0  0  0  0  0  0  0  0  0  0
    0.6497    1.6036   24.7442 C   0  0  0  0  0  0  0  0  0  0  0  0
   -0.6545    1.1353   24.7710 C   0  0  0  0  0  0  0  0  0  0  0  0
    0.0251   -1.0247   25.3958 C   0  0  0  0  0  0  0  0  0  0  0  0
  1  3  2  0
  1  4  1  0
  2  5  1  0
  4  5  2  0
  2  6  2  0
  3  6  1  0
  3  7  1  0
  5  8  1  0
 10  9  1  6
  7 12  2  0
 12 13  1  0
  7 15  1  0
  9 15  1  0
 14 15  2  0
  9 16  1  0
 11 16  1  0
 12 16  1  0
 10 19  1  0
 18 19  1  0
 10 20  1  0
 17 20  1  0
 17 21  1  0
 18 21  1  0
 13 22  2  0
 13 25  1  0
 23 25  2  0
 22 26  1  0
 24 26  1  0
 23 27  1  0
 26 27  2  0
 24 28  1  0
 28 29  1  0
 28 30  1  1
 29 32  1  0
 29 33  2  0
 31 34  2  0
 33 34  1  0
 31 35  1  0
 32 35  2  0
M  END
$$$$
