1YWR_LI9_A_361
     RDKit          3D

 35 39  0  0  0  0  0  0  0  0999 V2000
    3.5774   -0.9119   16.8310 C   0  0  0  0  0  0  0  0  0  0  0  0
    6.1016    0.0814   17.4143 C   0  0  0  0  0  0  0  0  0  0  0  0
    4.0291   -0.9542   18.1454 C   0  0  0  0  0  0  0  0  0  0  0  0
    4.3862   -0.3812   15.8486 C   0  0  0  0  0  0  0  0  0  0  0  0
    5.6540    0.1207   16.1245 C   0  0  0  0  0  0  0  0  0  0  0  0
    5.2800   -0.4569   18.4076 C   0  0  0  0  0  0  0  0  0  0  0  0
    3.1797   -1.5086   19.1924 C   0  0  0  0  0  0  0  0  0  0  0  0
    6.4572    0.6436   15.1706 F   0  0  0  0  0  0  0  0  0  0  0  0
    1.9934   -2.9071   20.3637 N   0  0  0  0  0  0  0  0  0  0  0  0
    1.3436   -4.1109   20.8092 C   0  0  2  0  0  0  0  0  0  0  0  0
    1.2069   -1.4861   22.1795 C   0  0  0  0  0  0  0  0  0  0  0  0
    2.6688   -0.8174   20.2700 C   0  0  0  0  0  0  0  0  0  0  0  0
    2.8198    0.5687   20.6614 C   0  0  0  0  0  0  0  0  0  0  0  0
    3.0466   -3.7125   18.4185 O   0  0  0  0  0  0  0  0  0  0  0  0
    2.7566   -2.8275   19.2473 C   0  0  0  0  0  0  0  0  0  0  0  0
    1.9455   -1.7202   20.9616 N   0  0  0  0  0  0  0  0  0  0  0  0
    1.1062   -4.9259   23.1603 C   0  0  0  0  0  0  0  0  0  0  0  0
   -0.6200   -5.3270   21.5293 C   0  0  0  0  0  0  0  0  0  0  0  0
   -0.1071   -3.9238   21.1846 C   0  0  0  0  0  0  0  0  0  0  0  0
    2.0430   -4.7356   21.9973 C   0  0  0  0  0  0  0  0  0  0  0  0
   -0.0725   -5.6603   22.8240 N   0  0  0  0  0  0  0  0  0  0  0  0
    2.8514    0.8391   21.9790 N   0  0  0  0  0  0  0  0  0  0  0  0
    3.0714    2.9228   20.2099 C   0  0  0  0  0  0  0  0  0  0  0  0
    3.0169    2.3337   23.8217 N   0  0  0  0  0  0  0  0  0  0  0  0
    2.9308    1.6200   19.7785 C   0  0  0  0  0  0  0  0  0  0  0  0
    2.9877    2.1030   22.4162 C   0  0  0  0  0  0  0  0  0  0  0  0
    3.0956    3.1245   21.5486 N   0  0  0  0  0  0  0  0  0  0  0  0
    2.9258    1.2504   24.7894 C   0  0  2  0  0  0  0  0  0  0  0  0
    1.5704    0.6848   24.7756 C   0  0  0  0  0  0  0  0  0  0  0  0
    3.3034    1.8120   26.1500 C   0  0  0  0  0  0  0  0  0  0  0  0
   -1.0925   -0.1796   24.7180 C   0  0  0  0  0  0  0  0  0  0  0  0
    0.5029    1.5697   24.5869 C   0  0  0  0  0  0  0  0  0  0  0  0
    1.2782   -0.6524   24.9364 C   0  0  0  0  0  0  0  0  0  0  0  0
   -0.0494   -1.0493   24.9031 C   0  0  0  0  0  0  0  0  0  0  0  0
   -0.8045    1.1482   24.5583 C   0  0  0  0  0  0  0  0  0  0  0  0
  1  3  2  0
  1  4  1  0
  2  5  1  0
  4  5  2  0
  2  6  2  0
  3  6  1  0
  3  7  1  0
  5  8  1  0
 10  9  1  1
  7 12  2  0
 12 13  1  0
  7 15  1  0
  9 15  1  0
 14 15  2  0
  9 16  1  0
 11 16  1  0
 12 16  1  0
 10 19  1  0
 18 19  1  0
 10 20  1  0
 17 20  1  0
 17 21  1  0
 18 21  1  0
 13 22  2  0
 13 25  1  0
 23 25  2  0
 22 26  1  0
 24 26  1  0
 23 27  1  0
 26 27  2  0
 24 28  1  0
 28 29  1  0
 28 30  1  1
 29 32  1  0
 29 33  2  0
 31 34  2  0
 33 34  1  0
 31 35  1  0
 32 35  2  0
M  END
$$$$
