1YWR_LI9_A_361
     RDKit          3D

 35 39  0  0  0  0  0  0  0  0999 V2000
   -7.8254   21.6338   16.6831 C   0  0  0  0  0  0  0  0  0  0  0  0
   -6.4777   19.4580   17.7547 C   0  0  0  0  0  0  0  0  0  0  0  0
   -8.4374   20.3854   16.6584 C   0  0  0  0  0  0  0  0  0  0  0  0
   -6.5693   21.7667   17.2355 C   0  0  0  0  0  0  0  0  0  0  0  0
   -5.8803   20.6860   17.7767 C   0  0  0  0  0  0  0  0  0  0  0  0
   -7.7506   19.3263   17.1944 C   0  0  0  0  0  0  0  0  0  0  0  0
   -9.7675   20.2350   16.0812 C   0  0  0  0  0  0  0  0  0  0  0  0
   -4.6481   20.8027   18.3212 F   0  0  0  0  0  0  0  0  0  0  0  0
  -11.3859   19.6498   14.7494 N   0  0  0  0  0  0  0  0  0  0  0  0
  -12.1117   19.0640   13.6541 C   0  0  2  0  0  0  0  0  0  0  0  0
  -13.3093   20.6882   15.8252 C   0  0  0  0  0  0  0  0  0  0  0  0
  -10.9336   20.7686   16.5867 C   0  0  0  0  0  0  0  0  0  0  0  0
  -11.1704   21.5754   17.7659 C   0  0  0  0  0  0  0  0  0  0  0  0
   -9.2083   18.9257   14.2247 O   0  0  0  0  0  0  0  0  0  0  0  0
  -10.0478   19.5281   14.9222 C   0  0  0  0  0  0  0  0  0  0  0  0
  -11.9018   20.3814   15.7329 N   0  0  0  0  0  0  0  0  0  0  0  0
  -11.3515   18.8263   11.2848 C   0  0  0  0  0  0  0  0  0  0  0  0
  -12.7605   17.1619   12.3072 C   0  0  0  0  0  0  0  0  0  0  0  0
  -11.8237   17.5971   13.4402 C   0  0  0  0  0  0  0  0  0  0  0  0
  -11.8471   19.7744   12.3440 C   0  0  0  0  0  0  0  0  0  0  0  0
  -12.2091   17.7010   11.0854 N   0  0  0  0  0  0  0  0  0  0  0  0
  -12.2668   21.2980   18.4948 N   0  0  0  0  0  0  0  0  0  0  0  0
  -10.6297   23.3382   19.3180 C   0  0  0  0  0  0  0  0  0  0  0  0
  -13.7239   21.6703   20.3372 N   0  0  0  0  0  0  0  0  0  0  0  0
  -10.3526   22.6012   18.1851 C   0  0  0  0  0  0  0  0  0  0  0  0
  -12.5513   22.0064   19.6013 C   0  0  0  0  0  0  0  0  0  0  0  0
  -11.7485   23.0067   20.0047 N   0  0  0  0  0  0  0  0  0  0  0  0
  -14.6975   20.7045   19.8499 C   0  0  2  0  0  0  0  0  0  0  0  0
  -15.4198   21.2644   18.7001 C   0  0  0  0  0  0  0  0  0  0  0  0
  -15.6256   20.3604   21.0030 C   0  0  0  0  0  0  0  0  0  0  0  0
  -16.8037   22.1191   16.4207 C   0  0  0  0  0  0  0  0  0  0  0  0
  -15.8111   20.3791   17.6895 C   0  0  0  0  0  0  0  0  0  0  0  0
  -15.7366   22.5970   18.5477 C   0  0  0  0  0  0  0  0  0  0  0  0
  -16.4220   22.9891   17.4086 C   0  0  0  0  0  0  0  0  0  0  0  0
  -16.4901   20.7959   16.5700 C   0  0  0  0  0  0  0  0  0  0  0  0
  1  3  2  0
  1  4  1  0
  2  5  1  0
  4  5  2  0
  2  6  2  0
  3  6  1  0
  3  7  1  0
  5  8  1  0
 10  9  1  1
  7 12  2  0
 12 13  1  0
  7 15  1  0
  9 15  1  0
 14 15  2  0
  9 16  1  0
 11 16  1  0
 12 16  1  0
 10 19  1  0
 18 19  1  0
 10 20  1  0
 17 20  1  0
 17 21  1  0
 18 21  1  0
 13 22  2  0
 13 25  1  0
 23 25  2  0
 22 26  1  0
 24 26  1  0
 23 27  1  0
 26 27  2  0
 24 28  1  0
 28 29  1  0
 28 30  1  1
 29 32  1  0
 29 33  2  0
 31 34  2  0
 33 34  1  0
 31 35  1  0
 32 35  2  0
M  END
$$$$
