1YWR_LI9_A_361
     RDKit          3D

 35 39  0  0  0  0  0  0  0  0999 V2000
   -7.2334   20.6735   16.6942 C   0  0  0  0  0  0  0  0  0  0  0  0
   -6.4712   20.4410   14.0364 C   0  0  0  0  0  0  0  0  0  0  0  0
   -7.7603   19.6366   15.9320 C   0  0  0  0  0  0  0  0  0  0  0  0
   -6.3484   21.5608   16.1195 C   0  0  0  0  0  0  0  0  0  0  0  0
   -5.9563   21.4581   14.7887 C   0  0  0  0  0  0  0  0  0  0  0  0
   -7.3677   19.5434   14.6213 C   0  0  0  0  0  0  0  0  0  0  0  0
   -8.6928   18.6900   16.5314 C   0  0  0  0  0  0  0  0  0  0  0  0
   -5.0895   22.3215   14.2129 F   0  0  0  0  0  0  0  0  0  0  0  0
   -9.6473   17.3576   17.9629 N   0  0  0  0  0  0  0  0  0  0  0  0
   -9.9340   16.6202   19.1645 C   0  0  2  0  0  0  0  0  0  0  0  0
  -11.5340   16.5166   16.6714 C   0  0  0  0  0  0  0  0  0  0  0  0
   -9.7953   18.1394   15.9138 C   0  0  0  0  0  0  0  0  0  0  0  0
  -10.3247   18.3304   14.5794 C   0  0  0  0  0  0  0  0  0  0  0  0
   -7.7075   18.5036   18.6452 O   0  0  0  0  0  0  0  0  0  0  0  0
   -8.5954   18.2000   17.8245 C   0  0  0  0  0  0  0  0  0  0  0  0
  -10.3501   17.3262   16.8344 N   0  0  0  0  0  0  0  0  0  0  0  0
   -8.2898   15.6592   20.7836 C   0  0  0  0  0  0  0  0  0  0  0  0
  -10.4119   16.5162   21.5338 C   0  0  0  0  0  0  0  0  0  0  0  0
  -10.0057   17.4742   20.4078 C   0  0  0  0  0  0  0  0  0  0  0  0
   -8.9203   15.5261   19.4230 C   0  0  0  0  0  0  0  0  0  0  0  0
   -9.2432   15.7263   21.8458 N   0  0  0  0  0  0  0  0  0  0  0  0
  -10.9236   17.2766   13.9953 N   0  0  0  0  0  0  0  0  0  0  0  0
  -10.7756   19.6349   12.6036 C   0  0  0  0  0  0  0  0  0  0  0  0
  -12.0618   16.2340   12.1859 N   0  0  0  0  0  0  0  0  0  0  0  0
  -10.2539   19.5117   13.8748 C   0  0  0  0  0  0  0  0  0  0  0  0
  -11.4371   17.3798   12.7572 C   0  0  0  0  0  0  0  0  0  0  0  0
  -11.3644   18.5362   12.0751 N   0  0  0  0  0  0  0  0  0  0  0  0
  -12.2670   15.0046   12.9374 C   0  0  2  0  0  0  0  0  0  0  0  0
  -10.9870   14.3032   13.1014 C   0  0  0  0  0  0  0  0  0  0  0  0
  -13.2914   14.1691   12.1877 C   0  0  0  0  0  0  0  0  0  0  0  0
   -8.5061   13.0077   13.1914 C   0  0  0  0  0  0  0  0  0  0  0  0
  -10.1550   14.2066   11.9804 C   0  0  0  0  0  0  0  0  0  0  0  0
  -10.5508   13.7346   14.2785 C   0  0  0  0  0  0  0  0  0  0  0  0
   -9.3184   13.1005   14.2914 C   0  0  0  0  0  0  0  0  0  0  0  0
   -8.9373   13.5715   12.0219 C   0  0  0  0  0  0  0  0  0  0  0  0
  1  3  2  0
  1  4  1  0
  2  5  1  0
  4  5  2  0
  2  6  2  0
  3  6  1  0
  3  7  1  0
  5  8  1  0
 10  9  1  6
  7 12  2  0
 12 13  1  0
  7 15  1  0
  9 15  1  0
 14 15  2  0
  9 16  1  0
 11 16  1  0
 12 16  1  0
 10 19  1  0
 18 19  1  0
 10 20  1  0
 17 20  1  0
 17 21  1  0
 18 21  1  0
 13 22  2  0
 13 25  1  0
 23 25  2  0
 22 26  1  0
 24 26  1  0
 23 27  1  0
 26 27  2  0
 24 28  1  0
 28 29  1  0
 28 30  1  6
 29 32  1  0
 29 33  2  0
 31 34  2  0
 33 34  1  0
 31 35  1  0
 32 35  2  0
M  END
$$$$
