1KZK_JE2_A_701
     RDKit          3D

 41 44  0  0  0  0  0  0  0  0999 V2000
   23.2542    4.0994   20.7752 C   0  0  0  0  0  0  0  0  0  0  0  0
   21.9719    4.0667   20.2550 C   0  0  0  0  0  0  0  0  0  0  0  0
   21.5092    2.9636   19.5725 C   0  0  0  0  0  0  0  0  0  0  0  0
   22.3050    1.8269   19.3708 C   0  0  0  0  0  0  0  0  0  0  0  0
   23.5640    1.8717   19.8873 C   0  0  0  0  0  0  0  0  0  0  0  0
   24.0274    2.9759   20.5705 C   0  0  0  0  0  0  0  0  0  0  0  0
   24.4638    0.7276   19.7239 C   0  0  0  0  0  0  0  0  0  0  0  0
   21.6984    0.7437   18.6424 C   0  0  0  0  0  0  0  0  0  0  0  0
   25.3330    2.9926   21.0922 O   0  0  0  0  0  0  0  0  0  0  0  0
   22.0093   -0.4384   19.0077 O   0  0  0  0  0  0  0  0  0  0  0  0
   20.5558   -1.8285   14.8952 C   0  0  0  0  0  0  0  0  0  0  0  0
   20.7893    0.8546   17.5676 N   0  0  0  0  0  0  0  0  0  0  0  0
   19.5720   -1.8173   14.0717 O   0  0  0  0  0  0  0  0  0  0  0  0
   20.8929   -0.5516   15.5100 C   0  0  2  0  0  0  0  0  0  0  0  0
   18.0068    0.2289   17.8066 C   0  0  0  0  0  0  0  0  0  0  0  0
   18.7678    0.0246   16.5608 C   0  0  0  0  0  0  0  0  0  0  0  0
   16.5481    0.5187   20.1539 C   0  0  0  0  0  0  0  0  0  0  0  0
   20.2568   -0.2288   16.8052 C   0  0  2  0  0  0  0  0  0  0  0  0
   20.6043    0.5315   14.6518 O   0  0  0  0  0  0  0  0  0  0  0  0
   17.4197   -0.8594   18.4153 C   0  0  0  0  0  0  0  0  0  0  0  0
   17.8362    1.4602   18.4145 C   0  0  0  0  0  0  0  0  0  0  0  0
   16.6902   -0.7143   19.5891 C   0  0  0  0  0  0  0  0  0  0  0  0
   17.1184    1.6352   19.5790 C   0  0  0  0  0  0  0  0  0  0  0  0
   19.9229   -5.1493   15.3427 C   0  0  0  0  0  0  0  0  0  0  0  0
   21.2431   -3.0830   15.1463 N   0  0  0  0  0  0  0  0  0  0  0  0
   20.2682   -5.5440   16.4766 O   0  0  0  0  0  0  0  0  0  0  0  0
   20.9681   -4.3493   14.6065 C   0  0  1  0  0  0  0  0  0  0  0  0
   22.2084   -5.1738   14.3783 C   0  0  1  0  0  0  0  0  0  0  0  0
   22.3572   -3.1064   16.0943 C   0  0  0  0  0  0  0  0  0  0  0  0
   22.1878   -6.5122   15.0468 C   0  0  0  0  0  0  0  0  0  0  0  0
   22.5505   -5.3790   12.9328 C   0  0  0  0  0  0  0  0  0  0  0  0
   23.5083   -4.1976   15.2294 S   0  0  0  0  0  0  0  0  0  0  0  0
   18.6882   -5.3858   14.7347 N   0  0  0  0  0  0  0  0  0  0  0  0
   17.8184   -6.5156   14.8190 C   0  0  0  0  0  0  0  0  0  0  0  0
   16.3851   -6.2958   14.6726 C   0  0  0  0  0  0  0  0  0  0  0  0
   15.7132   -5.1040   14.7233 C   0  0  0  0  0  0  0  0  0  0  0  0
   14.3397   -5.0753   14.4955 C   0  0  0  0  0  0  0  0  0  0  0  0
   13.5998   -6.1896   14.2196 C   0  0  0  0  0  0  0  0  0  0  0  0
   14.2654   -7.3953   14.1684 C   0  0  0  0  0  0  0  0  0  0  0  0
   15.6174   -7.4400   14.3890 C   0  0  0  0  0  0  0  0  0  0  0  0
   16.3428   -3.8235   15.0676 C   0  0  0  0  0  0  0  0  0  0  0  0
  1  2  2  0
  2  3  1  0
  3  4  2  0
  4  5  1  0
  1  6  1  0
  5  6  2  0
  7  5  1  6
  4  8  1  0
  6  9  1  0
  8 10  2  0
  8 12  1  0
 11 13  2  0
 11 14  1  0
 16 15  1  1
 18 12  1  6
 18 16  1  0
 14 18  1  0
 14 19  1  6
 15 20  2  0
 15 21  1  0
 20 22  1  0
 17 22  2  0
 17 23  1  0
 21 23  2  0
 11 25  1  0
 24 26  2  0
 25 27  1  0
 27 24  1  1
 27 28  1  0
 25 29  1  0
 30 28  1  6
 31 28  1  6
 29 32  1  6
 28 32  1  1
 24 33  1  0
 34 33  1  6
 34 35  1  0
 35 36  2  0
 36 37  1  0
 37 38  2  0
 38 39  1  0
 35 40  1  0
 39 40  2  0
 41 36  1  6
M  END
$$$$
