7YZU_DO7_A_401
     RDKit          3D

 16 16  0  0  0  0  0  0  0  0999 V2000
   11.9380  -20.5310  -18.7890 C   0  0  0  0  0  0  0  0  0  0  0  0
    9.7590  -21.5240  -19.6800 C   0  0  1  0  0  0  0  0  0  0  0  0
    9.0480  -22.8670  -19.7570 C   0  0  1  0  0  0  0  0  0  0  0  0
    8.7670  -23.3710  -18.3430 C   0  0  2  0  0  0  0  0  0  0  0  0
   12.0370  -24.7920  -17.3920 C   0  0  0  0  0  0  0  0  0  0  0  0
   10.0650  -23.4390  -17.5400 C   0  0  1  0  0  0  0  0  0  0  0  0
   11.0730  -21.7630  -18.9540 C   0  0  2  0  0  0  0  0  0  0  0  0
   10.8140  -24.5040  -18.0660 O   0  0  0  0  0  0  0  0  0  0  0  0
   10.7770  -22.2160  -17.6230 O   0  0  0  0  0  0  0  0  0  0  0  0
   13.7000  -20.7800  -18.7280 S   0  0  0  0  0  0  0  0  0  0  0  0
   13.9380  -21.3360  -17.4290 O   0  0  0  0  0  0  0  0  0  0  0  0
   14.2600  -19.4290  -18.9500 O   0  0  0  0  0  0  0  0  0  0  0  0
   14.0370  -21.8190  -19.7910 O   0  0  0  0  0  0  0  0  0  0  0  0
    9.9830  -21.0020  -20.9730 O   0  0  0  0  0  0  0  0  0  0  0  0
    7.8350  -22.7760  -20.5040 O   0  0  0  0  0  0  0  0  0  0  0  0
    8.1720  -24.6710  -18.3540 O   0  0  0  0  0  0  0  0  0  0  0  0
  2  3  1  0
  3  4  1  0
  4  6  1  0
  7  1  1  1
  2  7  1  0
  6  8  1  6
  5  8  1  0
  7  9  1  0
  6  9  1  0
  1 10  1  0
 10 11  2  0
 10 12  2  0
 10 13  1  0
  2 14  1  6
  3 15  1  6
  4 16  1  6
M  END
$$$$
