7YZU_DO7_A_401
     RDKit          3D

 30 30  0  0  0  0  0  0  0  0999 V2000
    1.0887    0.9050   -0.3395 C   0  0  0  0  0  0  0  0  0  0  0  0
    0.4373   -1.3000   -1.5766 C   0  0  1  0  0  0  0  0  0  0  0  0
   -1.0959   -1.2090   -1.7771 C   0  0  1  0  0  0  0  0  0  0  0  0
   -1.8583   -1.4877   -0.4723 C   0  0  2  0  0  0  0  0  0  0  0  0
   -1.6696   -0.0097    2.8612 C   0  0  0  0  0  0  0  0  0  0  0  0
   -1.2501   -0.6702    0.6798 C   0  0  1  0  0  0  0  0  0  0  0  0
    0.9191   -0.6335   -0.2527 C   0  0  2  0  0  0  0  0  0  0  0  0
   -1.9634   -0.9663    1.8657 O   0  0  0  0  0  0  0  0  0  0  0  0
    0.1164   -1.0143    0.8574 O   0  0  0  0  0  0  0  0  0  0  0  0
    2.6604    1.3924   -1.0490 S   0  0  0  0  0  6  0  0  0  0  0  0
    2.7755    0.9180   -2.4701 O   0  0  0  0  0  0  0  0  0  0  0  0
    3.7839    0.8085   -0.2396 O   0  0  0  0  0  0  0  0  0  0  0  0
    2.7817    3.0686   -1.0153 O   0  0  0  0  0  0  0  0  0  0  0  0
    0.8584   -2.6416   -1.6430 O   0  0  0  0  0  0  0  0  0  0  0  0
   -1.4498    0.0655   -2.2525 O   0  0  0  0  0  0  0  0  0  0  0  0
   -1.8109   -2.8616   -0.1786 O   0  0  0  0  0  0  0  0  0  0  0  0
    1.0437    1.3341    0.6843 H   0  0  0  0  0  0  0  0  0  0  0  0
    0.2762    1.3685   -0.9338 H   0  0  0  0  0  0  0  0  0  0  0  0
    0.9211   -0.7857   -2.4319 H   0  0  0  0  0  0  0  0  0  0  0  0
   -1.4109   -1.9700   -2.5304 H   0  0  0  0  0  0  0  0  0  0  0  0
   -2.9202   -1.1755   -0.6180 H   0  0  0  0  0  0  0  0  0  0  0  0
   -2.0439    0.9965    2.5703 H   0  0  0  0  0  0  0  0  0  0  0  0
   -0.5799    0.0309    3.0822 H   0  0  0  0  0  0  0  0  0  0  0  0
   -2.1895   -0.3024    3.7963 H   0  0  0  0  0  0  0  0  0  0  0  0
   -1.3729    0.4107    0.4281 H   0  0  0  0  0  0  0  0  0  0  0  0
    1.9289   -1.0474   -0.0424 H   0  0  0  0  0  0  0  0  0  0  0  0
    2.0246    3.3905   -1.5669 H   0  0  0  0  0  0  0  0  0  0  0  0
    0.6060   -3.0882   -0.7943 H   0  0  0  0  0  0  0  0  0  0  0  0
   -1.1957    0.0977   -3.2119 H   0  0  0  0  0  0  0  0  0  0  0  0
   -2.5862   -3.0613    0.4084 H   0  0  0  0  0  0  0  0  0  0  0  0
  2  3  1  0
  3  4  1  0
  4  6  1  0
  7  1  1  0
  2  7  1  0
  6  8  1  0
  5  8  1  0
  7  9  1  0
  6  9  1  0
  1 10  1  0
 10 11  2  0
 10 12  2  0
 10 13  1  0
  2 14  1  0
  3 15  1  0
  4 16  1  0
  1 17  1  0
  1 18  1  0
  2 19  1  6
  3 20  1  6
  4 21  1  6
  5 22  1  0
  5 23  1  0
  5 24  1  0
  6 25  1  6
  7 26  1  1
 13 27  1  0
 14 28  1  0
 15 29  1  0
 16 30  1  0
M  END
