7P4V_DAT_A_201
     RDKit          3D

 26 28  0  0  0  0  0  0  0  0999 V2000
   31.2820  -11.7323    9.6919 P   0  0  1  0  0  0  0  0  0  0  0  0
   30.3758  -12.9332    9.7441 O   0  0  0  0  0  0  0  0  0  0  0  0
   30.6317  -10.5050   10.2774 O   0  0  0  0  0  0  0  0  0  0  0  0
   32.5566  -12.0620   10.4387 O   0  0  0  0  0  0  0  0  0  0  0  0
   32.9676  -11.6190    7.3041 P   0  0  1  0  0  0  0  0  0  0  0  0
   33.0203  -12.9639    6.6246 O   0  0  0  0  0  0  0  0  0  0  0  0
   33.0871  -10.4873    6.3176 O   0  0  0  0  0  0  0  0  0  0  0  0
   31.6109  -11.3599    8.1509 O   0  0  0  0  0  0  0  0  0  0  0  0
   34.2592  -11.5491    8.2904 O   0  0  0  0  0  0  0  0  0  0  0  0
   34.4084  -10.5842    9.3248 C   0  0  0  0  0  0  0  0  0  0  0  0
   35.7467  -10.8504   10.0012 C   0  0  1  0  0  0  0  0  0  0  0  0
   35.8158  -12.2116   10.4859 O   0  0  0  0  0  0  0  0  0  0  0  0
   36.9253  -10.7113    9.0313 C   0  0  1  0  0  0  0  0  0  0  0  0
   37.4501   -9.3847    8.9842 O   0  0  0  0  0  0  0  0  0  0  0  0
   37.9761  -11.6538    9.5926 C   0  0  0  0  0  0  0  0  0  0  0  0
   37.1454  -12.7292   10.2932 C   0  0  2  0  0  0  0  0  0  0  0  0
   37.0775  -13.9006    9.3964 N   0  0  0  0  0  0  0  0  0  0  0  0
   36.1893  -14.1312    8.3895 C   0  0  0  0  0  0  0  0  0  0  0  0
   36.3532  -15.3926    7.8865 N   0  0  0  0  0  0  0  0  0  0  0  0
   37.3266  -16.0046    8.5972 C   0  0  0  0  0  0  0  0  0  0  0  0
   38.0674  -17.2847    8.5608 C   0  0  0  0  0  0  0  0  0  0  0  0
   37.7665  -18.2992    7.7111 N   0  0  0  0  0  0  0  0  0  0  0  0
   39.1053  -17.4161    9.4196 N   0  0  0  0  0  0  0  0  0  0  0  0
   39.4367  -16.4744   10.3187 C   0  0  0  0  0  0  0  0  0  0  0  0
   38.8187  -15.2905   10.3998 N   0  0  0  0  0  0  0  0  0  0  0  0
   37.8141  -14.9937    9.5668 C   0  0  0  0  0  0  0  0  0  0  0  0
  1  2  2  0
  1  3  1  1
  1  4  1  0
  5  6  2  0
  5  7  1  6
  1  8  1  0
  5  8  1  0
  5  9  1  0
  9 10  1  0
 11 10  1  6
 11 12  1  0
 11 13  1  0
 13 14  1  1
 13 15  1  0
 12 16  1  0
 15 16  1  0
 16 17  1  6
 17 18  1  0
 18 19  2  0
 19 20  1  0
 20 21  2  0
 21 22  1  0
 21 23  1  0
 23 24  2  0
 24 25  1  0
 17 26  1  0
 20 26  1  0
 25 26  2  0
M  END
