8C5M_MTA_A_7216
     RDKit          3D

 20 22  0  0  0  0  0  0  0  0999 V2000
   85.9910  -17.6307    0.0918 C   0  0  0  0  0  0  0  0  0  0  0  0
   86.1948  -17.5422    1.8540 S   0  0  0  0  0  0  0  0  0  0  0  0
   84.9261  -16.6905    2.7714 C   0  0  0  0  0  0  0  0  0  0  0  0
   84.8062  -15.2580    2.3803 C   0  0  1  0  0  0  0  0  0  0  0  0
   83.4994  -14.7949    2.6056 O   0  0  0  0  0  0  0  0  0  0  0  0
   84.8821  -13.0351    3.1813 C   0  0  2  0  0  0  0  0  0  0  0  0
   85.5886  -12.2189    2.2679 O   0  0  0  0  0  0  0  0  0  0  0  0
   85.6273  -14.3750    3.2569 C   0  0  2  0  0  0  0  0  0  0  0  0
   86.9279  -14.1973    2.7640 O   0  0  0  0  0  0  0  0  0  0  0  0
   83.5627  -13.4265    2.6054 C   0  0  2  0  0  0  0  0  0  0  0  0
   82.4470  -12.8168    3.3115 N   0  0  0  0  0  0  0  0  0  0  0  0
   82.0981  -13.0191    4.5940 C   0  0  0  0  0  0  0  0  0  0  0  0
   81.0008  -12.2656    4.8689 N   0  0  0  0  0  0  0  0  0  0  0  0
   80.6863  -11.6055    3.7470 C   0  0  0  0  0  0  0  0  0  0  0  0
   79.6635  -10.7134    3.4879 C   0  0  0  0  0  0  0  0  0  0  0  0
   78.7121  -10.3465    4.5035 N   0  0  0  0  0  0  0  0  0  0  0  0
   79.5855  -10.1921    2.2401 N   0  0  0  0  0  0  0  0  0  0  0  0
   80.4674  -10.5184    1.2633 C   0  0  0  0  0  0  0  0  0  0  0  0
   81.4855  -11.3978    1.4980 N   0  0  0  0  0  0  0  0  0  0  0  0
   81.5780  -11.9289    2.7419 C   0  0  0  0  0  0  0  0  0  0  0  0
  1  2  1  1
  3  2  1  6
  4  3  1  0
  4  5  1  1
  6  7  1  6
  4  8  1  0
  6  8  1  0
  8  9  1  6
  5 10  1  0
  6 10  1  0
 10 11  1  1
 11 12  1  0
 12 13  2  0
 13 14  1  0
 14 15  2  0
 15 16  1  0
 15 17  1  0
 17 18  2  0
 18 19  1  0
 11 20  1  0
 14 20  1  0
 19 20  2  0
M  END
$$$$
