
     RDKit          3D

 13 13  0  0  0  0  0  0  0  0999 V2000
    6.8881   27.9251   15.3150 N   0  0  0  0  0  0  0  0  0  0  0  0
    6.5645   28.8296   16.4544 C   0  0  2  0  0  0  0  0  0  0  0  0
    5.0699   29.1884   16.4472 C   0  0  0  0  0  0  0  0  0  0  0  0
    4.1345   28.4383   16.6749 O   0  0  0  0  0  0  0  0  0  0  0  0
    7.4100   30.1153   16.4129 C   0  0  0  0  0  0  0  0  0  0  0  0
    8.8996   29.8523   16.4161 C   0  0  0  0  0  0  0  0  0  0  0  0
    9.4590   28.9648   17.3471 C   0  0  0  0  0  0  0  0  0  0  0  0
    9.7397   30.4764   15.4830 C   0  0  0  0  0  0  0  0  0  0  0  0
   10.8320   28.7137   17.3476 C   0  0  0  0  0  0  0  0  0  0  0  0
   11.1135   30.2240   15.4820 C   0  0  0  0  0  0  0  0  0  0  0  0
   11.6479   29.3440   16.4167 C   0  0  0  0  0  0  0  0  0  0  0  0
   12.9830   29.0684   16.4508 O   0  0  0  0  0  0  0  0  0  0  0  0
    4.8272   30.4764   16.1073 O   0  0  0  0  0  0  0  0  0  0  0  0
  2  1  1  6
  2  3  1  0
  3  4  2  0
  2  5  1  0
  5  6  1  0
  6  7  4  0
  6  8  4  0
  7  9  4  0
  8 10  4  0
  9 11  4  0
 10 11  4  0
 11 12  1  0
  3 13  1  0
M  END
