7L7C_XQ1_A_201
     RDKit          3D

 21 23  0  0  0  0  0  0  0  0999 V2000
   19.8759  -10.1617    3.4587 C   0  0  0  0  0  0  0  0  0  0  0  0
   19.3134  -11.4050    3.6306 C   0  0  0  0  0  0  0  0  0  0  0  0
   20.2019   -7.2801    3.3392 C   0  0  0  0  0  0  0  0  0  0  0  0
   19.6943   -9.4041    2.3002 C   0  0  0  0  0  0  0  0  0  0  0  0
   20.8385   -6.0361    3.2921 C   0  0  0  0  0  0  0  0  0  0  0  0
   18.3330  -11.1979    1.4270 C   0  0  0  0  0  0  0  0  0  0  0  0
   18.5417  -11.9010    2.5940 C   0  0  0  0  0  0  0  0  0  0  0  0
   20.3663   -8.1237    2.2624 C   0  0  0  0  0  0  0  0  0  0  0  0
   17.1618  -11.1152   -0.7455 C   0  0  0  0  0  0  0  0  0  0  0  0
   17.5584  -11.7481    0.4334 O   0  0  0  0  0  0  0  0  0  0  0  0
   22.3134   -4.6180    1.8413 C   0  0  0  0  0  0  0  0  0  0  0  0
   22.5377   -3.3910    2.7009 C   0  0  0  0  0  0  0  0  0  0  0  0
   22.0446   -2.2220    1.9037 C   0  0  0  0  0  0  0  0  0  0  0  0
   22.8707   -4.8201    0.5976 C   0  0  0  0  0  0  0  0  0  0  0  0
   21.7341   -6.5921    1.1016 C   0  0  0  0  0  0  0  0  0  0  0  0
   21.1091   -7.8177    1.1490 C   0  0  0  0  0  0  0  0  0  0  0  0
   18.9244   -9.9387    1.3029 C   0  0  0  0  0  0  0  0  0  0  0  0
   21.5740   -5.7330    2.1938 C   0  0  0  0  0  0  0  0  0  0  0  0
   22.0791   -2.1970    0.6392 O   0  0  0  0  0  0  0  0  0  0  0  0
   21.5153   -1.0717    2.5207 O   0  0  0  0  0  0  0  0  0  0  0  0
   22.5020   -6.0065    0.1927 O   0  0  0  0  0  0  0  0  0  0  0  0
  1  2  2  0
  1  4  1  0
  3  5  2  0
  6  7  2  0
  2  7  1  0
  3  8  1  0
  4  8  1  0
  9 10  1  6
  6 10  1  0
 11 12  1  0
 12 13  1  1
 11 14  2  0
 15 16  1  0
  8 16  2  0
  4 17  2  0
  6 17  1  0
 11 18  1  0
  5 18  1  0
 15 18  2  0
 13 19  2  0
 13 20  1  0
 14 21  1  0
 15 21  1  0
M  END
$$$$
