7XPO_UPG_A_402
     RDKit          3D

 36 38  0  0  0  0  0  0  0  0999 V2000
  -17.0400  -25.2930  -28.8870 N   0  0  0  0  0  0  0  0  0  0  0  0
  -16.2770  -25.9750  -29.7830 C   0  0  0  0  0  0  0  0  0  0  0  0
  -15.3810  -25.3150  -30.5490 N   0  0  0  0  0  0  0  0  0  0  0  0
  -15.2310  -23.9950  -30.4480 C   0  0  0  0  0  0  0  0  0  0  0  0
  -15.9460  -23.2510  -29.5230 C   0  0  0  0  0  0  0  0  0  0  0  0
  -16.8750  -23.9430  -28.7890 C   0  0  0  0  0  0  0  0  0  0  0  0
  -16.3900  -27.1890  -29.9130 O   0  0  0  0  0  0  0  0  0  0  0  0
  -14.2920  -23.4560  -31.2050 O   0  0  0  0  0  0  0  0  0  0  0  0
  -18.0160  -25.9430  -28.1650 C   0  0  1  0  0  0  0  0  0  0  0  0
  -17.9660  -25.7760  -26.6000 C   0  0  2  0  0  0  0  0  0  0  0  0
  -17.1270  -26.9270  -26.1670 O   0  0  0  0  0  0  0  0  0  0  0  0
  -19.1790  -25.8460  -26.1230 C   0  0  1  0  0  0  0  0  0  0  0  0
  -20.0780  -25.1640  -27.3040 C   0  0  2  0  0  0  0  0  0  0  0  0
  -19.3260  -25.2780  -28.3900 O   0  0  0  0  0  0  0  0  0  0  0  0
  -19.7830  -27.1800  -25.9360 O   0  0  0  0  0  0  0  0  0  0  0  0
  -20.4320  -23.7080  -26.9620 C   0  0  0  0  0  0  0  0  0  0  0  0
  -19.2240  -23.0550  -26.6370 O   0  0  0  0  0  0  0  0  0  0  0  0
  -19.1370  -21.4860  -26.5310 P   0  0  2  0  0  0  0  0  0  0  0  0
  -19.8160  -20.8730  -27.7400 O   0  0  0  0  0  0  0  0  0  0  0  0
  -17.6930  -21.1160  -26.3300 O   0  0  0  0  0  0  0  0  0  0  0  0
  -20.1200  -21.0990  -25.3200 O   0  0  0  0  0  0  0  0  0  0  0  0
  -20.0670  -21.5130  -23.7440 P   0  0  2  0  0  0  0  0  0  0  0  0
  -18.6360  -21.7050  -23.3460 O   0  0  0  0  0  0  0  0  0  0  0  0
  -21.2870  -22.2260  -23.4480 O   0  0  0  0  0  0  0  0  0  0  0  0
  -20.2570  -19.9400  -23.1920 O   0  0  0  0  0  0  0  0  0  0  0  0
  -21.3390  -19.1480  -23.6170 C   0  0  2  0  0  0  0  0  0  0  0  0
  -21.1030  -17.6900  -23.4770 C   0  0  1  0  0  0  0  0  0  0  0  0
  -20.6670  -17.4650  -22.1320 C   0  0  2  0  0  0  0  0  0  0  0  0
  -21.8150  -17.6130  -21.2210 C   0  0  1  0  0  0  0  0  0  0  0  0
  -22.3870  -19.0630  -21.2950 C   0  0  1  0  0  0  0  0  0  0  0  0
  -23.7030  -19.0900  -20.7270 C   0  0  0  0  0  0  0  0  0  0  0  0
  -20.0830  -17.1360  -24.3850 O   0  0  0  0  0  0  0  0  0  0  0  0
  -20.0380  -16.1310  -22.0050 O   0  0  0  0  0  0  0  0  0  0  0  0
  -21.3710  -17.3090  -19.9000 O   0  0  0  0  0  0  0  0  0  0  0  0
  -22.4980  -19.4910  -22.7630 O   0  0  0  0  0  0  0  0  0  0  0  0
  -24.1950  -17.7690  -20.6980 O   0  0  0  0  0  0  0  0  0  0  0  0
  1  2  1  0
  2  3  1  0
  3  4  1  0
  4  5  1  0
  1  6  1  0
  5  6  2  0
  2  7  2  0
  4  8  2  0
  9  1  1  6
  9 10  1  0
 10 11  1  1
 10 12  1  0
 12 13  1  0
  9 14  1  0
 13 14  1  0
 12 15  1  6
 13 16  1  1
 16 17  1  0
 17 18  1  0
 18 19  2  0
 18 20  1  1
 18 21  1  0
 21 22  1  0
 22 23  2  0
 22 24  1  1
 22 25  1  0
 26 25  1  1
 26 27  1  0
 27 28  1  0
 28 29  1  0
 29 30  1  0
 30 31  1  6
 27 32  1  6
 28 33  1  6
 29 34  1  1
 26 35  1  0
 30 35  1  0
 31 36  1  0
M  END
$$$$
