1Q4G_BFL_B_1701
     RDKit          3D

 31 32  0  0  0  0  0  0  0  0999 V2000
   69.1702   22.5620  190.8075 C   0  0  0  0  0  0  0  0  0  0  0  0
   68.9382   26.5554  187.3813 C   0  0  0  0  0  0  0  0  0  0  0  0
   69.9779   26.0364  188.1964 C   0  0  0  0  0  0  0  0  0  0  0  0
   69.7310   24.9218  189.0587 C   0  0  0  0  0  0  0  0  0  0  0  0
   67.4817   19.6987  192.6876 C   0  0  2  0  0  0  0  0  0  0  0  0
   67.1331   20.2723  194.0596 C   0  0  0  0  0  0  0  0  0  0  0  0
   68.6966   18.7566  192.6721 C   0  0  0  0  0  0  0  0  0  0  0  0
   68.9520   21.4674  191.6561 C   0  0  0  0  0  0  0  0  0  0  0  0
   67.6581   20.9186  191.7406 C   0  0  0  0  0  0  0  0  0  0  0  0
   66.5846   21.4853  190.9689 C   0  0  0  0  0  0  0  0  0  0  0  0
   66.8109   22.5999  190.1058 C   0  0  0  0  0  0  0  0  0  0  0  0
   68.1464   23.1690  190.0094 C   0  0  0  0  0  0  0  0  0  0  0  0
   68.4338   24.3310  189.0964 C   0  0  0  0  0  0  0  0  0  0  0  0
   67.3721   24.8672  188.2539 C   0  0  0  0  0  0  0  0  0  0  0  0
   67.6571   25.9814  187.4053 C   0  0  0  0  0  0  0  0  0  0  0  0
   67.3807   19.7248  195.1002 O   0  0  0  0  0  0  0  0  0  0  0  0
   66.5369   21.4194  194.0020 O   0  0  0  0  0  0  0  0  0  0  0  0
   70.1243   22.9531  190.7549 H   0  0  0  0  0  0  0  0  0  0  0  0
   69.1254   27.3620  186.7654 H   0  0  0  0  0  0  0  0  0  0  0  0
   70.9154   26.4650  188.1665 H   0  0  0  0  0  0  0  0  0  0  0  0
   70.4878   24.5467  189.6509 H   0  0  0  0  0  0  0  0  0  0  0  0
   66.6898   19.0585  192.3615 H   0  0  0  0  0  0  0  0  0  0  0  0
   69.5682   19.2915  192.9855 H   0  0  0  0  0  0  0  0  0  0  0  0
   68.5212   17.9382  193.3387 H   0  0  0  0  0  0  0  0  0  0  0  0
   68.8467   18.3837  191.6811 H   0  0  0  0  0  0  0  0  0  0  0  0
   69.7279   21.0705  192.2099 H   0  0  0  0  0  0  0  0  0  0  0  0
   65.6372   21.0809  191.0397 H   0  0  0  0  0  0  0  0  0  0  0  0
   66.0335   22.9982  189.5551 H   0  0  0  0  0  0  0  0  0  0  0  0
   66.4298   24.4488  188.2702 H   0  0  0  0  0  0  0  0  0  0  0  0
   66.9140   26.3684  186.8037 H   0  0  0  0  0  0  0  0  0  0  0  0
   67.8139   18.8940  195.1017 H   0  0  0  0  0  0  0  0  0  0  0  0
  2  3  2  0
  3  4  1  0
  5  6  1  0
  5  7  1  0
  1  8  2  0
  5  9  1  0
  8  9  1  0
  9 10  2  0
 10 11  1  0
  1 12  1  0
 11 12  2  0
  4 13  2  0
 12 13  1  0
 13 14  1  0
  2 15  1  0
 14 15  2  0
  6 16  1  0
  6 17  2  0
  1 18  1  0
  2 19  1  0
  3 20  1  0
  4 21  1  0
  5 22  1  1
  7 23  1  0
  7 24  1  0
  7 25  1  0
  8 26  1  0
 10 27  1  0
 11 28  1  0
 14 29  1  0
 15 30  1  0
 16 31  1  0
M  END
