7JR8_VH7_A_205
     RDKit          3D

 28 31  0  0  0  0  0  0  0  0999 V2000
   -4.0091   -6.0920   65.2779 C   0  0  0  0  0  0  0  0  0  0  0  0
   -3.0698   -7.0760   65.8789 C   0  0  2  0  0  0  0  0  0  0  0  0
   -3.0232   -8.3735   65.0657 C   0  0  0  0  0  0  0  0  0  0  0  0
   -3.4958   -8.0367   60.8857 C   0  0  0  0  0  0  0  0  0  0  0  0
   -3.0337   -6.8318   61.6750 C   0  0  1  0  0  0  0  0  0  0  0  0
   -3.6453   -5.5938   61.0650 C   0  0  0  0  0  0  0  0  0  0  0  0
   -3.4209   -7.0308   63.1044 C   0  0  2  0  0  0  0  0  0  0  0  0
   -3.5109   -5.7448   63.8894 C   0  0  0  0  0  0  0  0  0  0  0  0
   -2.3984   -7.9647   63.7318 C   0  0  0  0  0  0  0  0  0  0  0  0
   -3.6118   -6.5373   68.2694 C   0  0  0  0  0  0  0  0  0  0  0  0
   -4.0437   -6.9260   69.6050 C   0  0  0  0  0  0  0  0  0  0  0  0
   -4.0065   -5.9609   70.5897 C   0  0  0  0  0  0  0  0  0  0  0  0
   -4.4186   -6.3350   71.8604 C   0  0  0  0  0  0  0  0  0  0  0  0
   -4.8529   -7.6125   72.1556 C   0  0  0  0  0  0  0  0  0  0  0  0
   -5.5989   -9.5101   73.0142 C   0  0  0  0  0  0  0  0  0  0  0  0
   -5.3285   -9.7002   71.6662 C   0  0  0  0  0  0  0  0  0  0  0  0
   -4.4809   -8.1949   69.9229 C   0  0  0  0  0  0  0  0  0  0  0  0
   -6.1120  -10.5370   73.9333 C   0  0  0  0  0  0  0  0  0  0  0  0
   -6.3762  -10.2156   75.2475 C   0  0  0  0  0  0  0  0  0  0  0  0
   -6.8586  -11.2158   76.0769 C   0  0  0  0  0  0  0  0  0  0  0  0
   -7.0582  -12.4854   75.5737 C   0  0  0  0  0  0  0  0  0  0  0  0
   -6.8011  -12.8303   74.2631 C   0  0  0  0  0  0  0  0  0  0  0  0
   -6.3164  -11.8106   73.4443 C   0  0  0  0  0  0  0  0  0  0  0  0
   -3.3919   -7.4691   67.2196 N   0  0  0  0  0  0  0  0  0  0  0  0
   -5.2981   -8.2239   73.2834 N   0  0  0  0  0  0  0  0  0  0  0  0
   -4.8764   -8.5342   71.1651 N   0  0  0  0  0  0  0  0  0  0  0  0
   -1.6470   -6.7123   61.5288 O   0  0  0  0  0  0  0  0  0  0  0  0
   -3.4244   -5.3351   68.0288 O   0  0  0  0  0  0  0  0  0  0  0  0
  1  2  1  0
  3  2  1  1
  4  5  1  1
  6  5  1  1
  7  5  1  0
  1  8  1  6
  7  8  1  1
  9  3  1  6
  7  9  1  0
 10 11  1  0
 11 12  1  0
 12 13  2  0
 13 14  1  0
 15 16  2  0
 11 17  2  0
 15 18  1  0
 18 19  2  0
 19 20  1  0
 20 21  2  0
 21 22  1  0
 22 23  2  0
 18 23  1  0
 10 24  1  0
  2 24  1  1
 15 25  1  0
 14 25  2  0
 16 26  1  0
 14 26  1  0
 17 26  1  0
  5 27  1  1
 10 28  2  0
M  END
$$$$
