7OPG_06N_A_501
     RDKit          3D

 19 21  0  0  0  0  0  0  0  0999 V2000
   46.2487   16.6530   84.3927 C   0  0  0  0  0  0  0  0  0  0  0  0
   45.4076   15.6122   84.6599 C   0  0  0  0  0  0  0  0  0  0  0  0
   46.3749   17.4947   83.1981 C   0  0  0  0  0  0  0  0  0  0  0  0
   45.5891   18.2567   81.0557 C   0  0  0  0  0  0  0  0  0  0  0  0
   45.4386   17.4553   82.1665 C   0  0  0  0  0  0  0  0  0  0  0  0
   46.6689   19.1039   80.9555 C   0  0  0  0  0  0  0  0  0  0  0  0
   47.5991   19.1570   81.9794 C   0  0  0  0  0  0  0  0  0  0  0  0
   47.4521   18.3496   83.0802 C   0  0  0  0  0  0  0  0  0  0  0  0
   45.6110   15.0892   85.9153 N   0  0  0  0  0  0  0  0  0  0  0  0
   46.5715   15.8102   86.4194 C   0  0  0  0  0  0  0  0  0  0  0  0
   46.9738   16.7798   85.5449 N   0  0  0  0  0  0  0  0  0  0  0  0
   47.5080   15.8547   87.8908 S   0  0  0  0  0  0  0  0  0  0  0  0
   48.2811   17.2345   87.1307 C   0  0  0  0  0  0  0  0  0  0  0  0
   47.9487   17.6408   85.9489 N   0  0  0  0  0  0  0  0  0  0  0  0
   49.1937   17.9457   87.7989 N   0  0  0  0  0  0  0  0  0  0  0  0
   50.1715   18.7673   87.1147 C   0  0  0  0  0  0  0  0  0  0  0  0
   51.1483   19.3775   88.0935 C   0  0  0  0  0  0  0  0  0  0  0  0
   52.5816   19.0600   87.7270 C   0  0  0  0  0  0  0  0  0  0  0  0
   46.8773   19.9072   79.8828 O   0  0  0  0  0  0  0  0  0  0  0  0
  1  2  2  0
  1  3  1  0
  4  5  2  0
  3  5  1  0
  4  6  1  0
  6  7  2  0
  7  8  1  0
  3  8  2  0
  2  9  1  0
  9 10  2  0
  1 11  1  0
 10 11  1  0
 10 12  1  0
 12 13  1  0
 11 14  1  0
 13 14  2  0
 13 15  1  0
 15 16  1  0
 16 17  1  0
 17 18  1  0
  6 19  1  0
M  END
