1Q41_IXM_A_451
     RDKit          3D

 32 35  0  0  0  0  0  0  0  0999 V2000
   39.9700    4.0590   35.7932 C   0  0  0  0  0  0  0  0  0  0  0  0
   39.2291    5.3526   35.6463 C   0  0  0  0  0  0  0  0  0  0  0  0
   40.9229    4.2726   36.8181 C   0  0  0  0  0  0  0  0  0  0  0  0
   40.8316    5.5398   37.3120 N   0  0  0  0  0  0  0  0  0  0  0  0
   41.8176    3.2627   37.2243 C   0  0  0  0  0  0  0  0  0  0  0  0
   41.7418    1.9976   36.5867 C   0  0  0  0  0  0  0  0  0  0  0  0
   40.7786    1.7705   35.5541 C   0  0  0  0  0  0  0  0  0  0  0  0
   39.8789    2.8093   35.1452 C   0  0  0  0  0  0  0  0  0  0  0  0
   39.8404    6.2738   36.6966 C   0  0  0  0  0  0  0  0  0  0  0  0
   39.5160    7.5628   36.9908 C   0  0  0  0  0  0  0  0  0  0  0  0
   40.1819    8.1955   38.2094 C   0  0  0  0  0  0  0  0  0  0  0  0
   39.7186    9.5028   38.2555 N   0  0  0  0  0  0  0  0  0  0  0  0
   38.8386    9.7693   37.2178 C   0  0  0  0  0  0  0  0  0  0  0  0
   38.6600    8.6240   36.3961 C   0  0  0  0  0  0  0  0  0  0  0  0
   38.2003   11.0068   36.9785 C   0  0  0  0  0  0  0  0  0  0  0  0
   37.3426   11.1037   35.8568 C   0  0  0  0  0  0  0  0  0  0  0  0
   37.1381    9.9718   35.0082 C   0  0  0  0  0  0  0  0  0  0  0  0
   37.7974    8.7267   35.2802 C   0  0  0  0  0  0  0  0  0  0  0  0
   40.9782    7.6803   38.9955 O   0  0  0  0  0  0  0  0  0  0  0  0
   38.2933    5.7093   34.8202 N   0  0  0  0  0  0  0  0  0  0  0  0
   37.8688    4.7431   33.9069 O   0  0  0  0  0  0  0  0  0  0  0  0
   41.4089    5.8913   38.0279 H   0  0  0  0  0  0  0  0  0  0  0  0
   42.5114    3.4390   37.9677 H   0  0  0  0  0  0  0  0  0  0  0  0
   42.3830    1.2396   36.8685 H   0  0  0  0  0  0  0  0  0  0  0  0
   40.7305    0.8465   35.0972 H   0  0  0  0  0  0  0  0  0  0  0  0
   39.1850    2.6475   34.3987 H   0  0  0  0  0  0  0  0  0  0  0  0
   39.9820   10.1594   38.9401 H   0  0  0  0  0  0  0  0  0  0  0  0
   38.3546   11.8146   37.6020 H   0  0  0  0  0  0  0  0  0  0  0  0
   36.8634   11.9943   35.6511 H   0  0  0  0  0  0  0  0  0  0  0  0
   36.5108   10.0507   34.1926 H   0  0  0  0  0  0  0  0  0  0  0  0
   37.6431    7.9119   34.6659 H   0  0  0  0  0  0  0  0  0  0  0  0
   37.1958    4.9473   33.2878 H   0  0  0  0  0  0  0  0  0  0  0  0
  1  2  1  0
  1  3  2  0
  3  4  1  0
  3  5  1  0
  5  6  2  0
  6  7  1  0
  1  8  1  0
  7  8  2  0
  2  9  1  0
  4  9  1  0
  9 10  2  3
 10 11  1  0
 11 12  1  0
 12 13  1  0
 10 14  1  0
 13 14  2  0
 13 15  1  0
 15 16  2  0
 16 17  1  0
 14 18  1  0
 17 18  2  0
 11 19  2  0
  2 20  2  3
 20 21  1  0
  4 22  1  0
  5 23  1  0
  6 24  1  0
  7 25  1  0
  8 26  1  0
 12 27  1  0
 15 28  1  0
 16 29  1  0
 17 30  1  0
 18 31  1  0
 21 32  1  0
M  END
