7NUT_GLP_A_501
     RDKit          3D

 16 16  0  0  0  0  0  0  0  0999 V2000
    3.2300    6.0310  -36.8020 C   0  0  1  0  0  0  0  0  0  0  0  0
    4.2540    6.2100  -35.6920 C   0  0  1  0  0  0  0  0  0  0  0  0
    5.4790    5.4000  -35.9580 C   0  0  2  0  0  0  0  0  0  0  0  0
    5.1340    3.9750  -36.2540 C   0  0  1  0  0  0  0  0  0  0  0  0
    4.1020    3.8930  -37.3900 C   0  0  1  0  0  0  0  0  0  0  0  0
    3.7710    2.4720  -37.7520 C   0  0  0  0  0  0  0  0  0  0  0  0
    3.7500    6.4580  -37.9710 O   0  0  0  0  0  0  0  0  0  0  0  0
    4.5990    7.6380  -35.6150 N   0  0  0  0  0  0  0  0  0  0  0  0
    6.3460    5.4440  -34.7850 O   0  0  0  0  0  0  0  0  0  0  0  0
    6.3010    3.2440  -36.6290 O   0  0  0  0  0  0  0  0  0  0  0  0
    2.8840    4.5800  -36.9710 O   0  0  0  0  0  0  0  0  0  0  0  0
    3.3810    1.7820  -36.6040 O   0  0  0  0  0  0  0  0  0  0  0  0
    2.8810    0.2400  -36.8910 P   0  0  0  0  0  0  0  0  0  0  0  0
    3.8190   -0.4220  -37.9250 O   0  0  0  0  0  0  0  0  0  0  0  0
    1.4570    0.2650  -37.4710 O   0  0  0  0  0  0  0  0  0  0  0  0
    2.9290   -0.4780  -35.5170 O   0  0  0  0  0  0  0  0  0  0  0  0
  1  2  1  0
  2  3  1  0
  3  4  1  0
  4  5  1  0
  5  6  1  1
  1  7  1  6
  2  8  1  6
  3  9  1  1
  4 10  1  6
  1 11  1  0
  5 11  1  0
  6 12  1  0
 12 13  1  0
 13 14  2  0
 13 15  1  0
 13 16  1  0
M  END
$$$$
