7NUT_GLP_B_501
     RDKit          3D

 30 30  0  0  0  0  0  0  0  0999 V2000
   -0.0049   -2.4334   -0.1237 C   0  0  1  0  0  0  0  0  0  0  0  0
    0.9653   -1.5028   -0.8795 C   0  0  1  0  0  0  0  0  0  0  0  0
    1.5415   -0.4074    0.0503 C   0  0  2  0  0  0  0  0  0  0  0  0
    0.6863   -0.1921    1.3225 C   0  0  1  0  0  0  0  0  0  0  0  0
   -0.8209   -0.5382    1.1174 C   0  0  1  0  0  0  0  0  0  0  0  0
   -1.6063    0.6321    0.5033 C   0  0  0  0  0  0  0  0  0  0  0  0
    0.6370   -3.1406    0.9078 O   0  0  0  0  0  0  0  0  0  0  0  0
    2.0498   -2.2796   -1.4865 N   0  0  0  0  0  0  0  0  0  0  0  0
    1.6430    0.8073   -0.6500 O   0  0  0  0  0  0  0  0  0  0  0  0
    1.1905   -0.9710    2.3801 O   0  0  0  0  0  0  0  0  0  0  0  0
   -1.1214   -1.7295    0.3898 O   0  0  0  0  0  0  0  0  0  0  0  0
   -1.2096    0.8344   -0.8320 O   0  0  0  0  0  0  0  0  0  0  0  0
   -2.0549    2.1790   -1.4526 P   0  0  0  0  0  5  0  0  0  0  0  0
   -1.6402    3.4338   -0.7176 O   0  0  0  0  0  0  0  0  0  0  0  0
   -1.6784    2.3545   -3.0924 O   0  0  0  0  0  0  0  0  0  0  0  0
   -3.7250    1.9549   -1.2878 O   0  0  0  0  0  0  0  0  0  0  0  0
   -0.4111   -3.1661   -0.8591 H   0  0  0  0  0  0  0  0  0  0  0  0
    0.3822   -1.0183   -1.6962 H   0  0  0  0  0  0  0  0  0  0  0  0
    2.5643   -0.7091    0.3820 H   0  0  0  0  0  0  0  0  0  0  0  0
    0.7604    0.8796    1.6277 H   0  0  0  0  0  0  0  0  0  0  0  0
   -1.2497   -0.6745    2.1352 H   0  0  0  0  0  0  0  0  0  0  0  0
   -2.6891    0.3748    0.5471 H   0  0  0  0  0  0  0  0  0  0  0  0
   -1.4343    1.5444    1.1196 H   0  0  0  0  0  0  0  0  0  0  0  0
    1.1589   -3.8693    0.4812 H   0  0  0  0  0  0  0  0  0  0  0  0
    1.6324   -2.9574   -2.1653 H   0  0  0  0  0  0  0  0  0  0  0  0
    2.6402   -1.6317   -2.0573 H   0  0  0  0  0  0  0  0  0  0  0  0
    2.4121    0.7210   -1.2718 H   0  0  0  0  0  0  0  0  0  0  0  0
    2.0098   -0.5187    2.7129 H   0  0  0  0  0  0  0  0  0  0  0  0
   -1.8882    1.4740   -3.4943 H   0  0  0  0  0  0  0  0  0  0  0  0
   -3.9151    1.1126   -1.7729 H   0  0  0  0  0  0  0  0  0  0  0  0
  1  2  1  0
  2  3  1  0
  3  4  1  0
  4  5  1  0
  5  6  1  0
  1  7  1  0
  2  8  1  0
  3  9  1  0
  4 10  1  0
  1 11  1  0
  5 11  1  0
  6 12  1  0
 12 13  1  0
 13 14  2  0
 13 15  1  0
 13 16  1  0
  1 17  1  6
  2 18  1  6
  3 19  1  1
  4 20  1  1
  5 21  1  1
  6 22  1  0
  6 23  1  0
  7 24  1  0
  8 25  1  0
  8 26  1  0
  9 27  1  0
 10 28  1  0
 15 29  1  0
 16 30  1  0
M  END
