1T40_ID5_A_320
     RDKit          3D

 28 30  0  0  0  0  0  0  0  0999 V2000
   15.4474   -2.7949   17.5901 C   0  0  0  0  0  0  0  0  0  0  0  0
   15.0251   -4.9519   19.1912 C   0  0  0  0  0  0  0  0  0  0  0  0
   15.6276   -4.0928   17.0947 C   0  0  0  0  0  0  0  0  0  0  0  0
   15.0544   -2.5700   18.8922 C   0  0  0  0  0  0  0  0  0  0  0  0
   14.8478   -3.6795   19.6801 C   0  0  0  0  0  0  0  0  0  0  0  0
   15.4239   -5.2026   17.8724 C   0  0  0  0  0  0  0  0  0  0  0  0
   22.6055   -8.0065   15.4902 F   0  0  0  0  0  0  0  0  0  0  0  0
   14.8664   -1.3437   19.4212 F   0  0  0  0  0  0  0  0  0  0  0  0
   15.5804   -6.5749   17.4620 C   0  0  0  0  0  0  0  0  0  0  0  0
   17.1042   -9.1731   17.2048 C   0  0  0  0  0  0  0  0  0  0  0  0
   20.1485  -11.9803   14.7391 F   0  0  0  0  0  0  0  0  0  0  0  0
   16.0137   -4.2193   15.8043 O   0  0  0  0  0  0  0  0  0  0  0  0
   15.8550   -6.7937   16.2305 O   0  0  0  0  0  0  0  0  0  0  0  0
   15.7480   -9.0749   17.8147 C   0  0  0  0  0  0  0  0  0  0  0  0
   16.5276   -3.2691   14.9306 C   0  0  0  0  0  0  0  0  0  0  0  0
   18.0838   -8.5961   17.0617 N   0  0  0  0  0  0  0  0  0  0  0  0
   17.5527  -10.8155   16.3017 S   0  0  0  0  0  0  0  0  0  0  0  0
   20.5560   -6.9161   16.7989 F   0  0  0  0  0  0  0  0  0  0  0  0
   19.2339  -10.1496   15.9136 C   0  0  0  0  0  0  0  0  0  0  0  0
   21.4475   -8.7340   15.6394 C   0  0  0  0  0  0  0  0  0  0  0  0
   19.2214   -8.8931   16.4707 C   0  0  0  0  0  0  0  0  0  0  0  0
   20.2832  -10.7438   15.2278 C   0  0  0  0  0  0  0  0  0  0  0  0
   21.4445   -9.9824   15.0921 C   0  0  0  0  0  0  0  0  0  0  0  0
   20.3986   -8.1575   16.3173 C   0  0  0  0  0  0  0  0  0  0  0  0
   16.9488   -3.7568   13.6167 C   0  0  0  0  0  0  0  0  0  0  0  0
   17.4585   -2.9729   12.5932 O   0  0  0  0  0  0  0  0  0  0  0  0
   16.8412   -5.0048   13.3903 O   0  0  0  0  0  0  0  0  0  0  0  0
   15.4653   -7.7208   18.2676 N   0  0  0  0  0  0  0  0  0  0  0  0
  1  3  2  0
  1  4  1  0
  2  5  1  0
  4  5  2  0
  2  6  2  0
  3  6  1  0
  4  8  1  0
  6  9  1  0
  3 12  1  0
  9 13  2  0
 10 14  1  0
 12 15  1  0
 10 16  2  0
 10 17  1  0
 17 19  1  0
  7 20  1  0
 16 21  1  0
 19 21  2  0
 11 22  1  0
 19 22  1  0
 20 23  1  0
 22 23  2  0
 18 24  1  0
 20 24  2  0
 21 24  1  0
 15 25  1  0
 25 26  1  0
 25 27  2  0
  9 28  1  0
 14 28  1  0
M  END
$$$$
