1T40_ID5_A_320
     RDKit          3D

 28 30  0  0  0  0  0  0  0  0999 V2000
   14.8934  -15.6838   16.1432 C   0  0  0  0  0  0  0  0  0  0  0  0
   16.4696  -15.9265   13.9408 C   0  0  0  0  0  0  0  0  0  0  0  0
   15.3563  -14.5443   15.4725 C   0  0  0  0  0  0  0  0  0  0  0  0
   15.2182  -16.9529   15.7139 C   0  0  0  0  0  0  0  0  0  0  0  0
   16.0171  -17.0463   14.5970 C   0  0  0  0  0  0  0  0  0  0  0  0
   16.1519  -14.6287   14.3599 C   0  0  0  0  0  0  0  0  0  0  0  0
   19.7511   -6.3683   16.0790 F   0  0  0  0  0  0  0  0  0  0  0  0
   14.8012  -18.0831   16.3205 F   0  0  0  0  0  0  0  0  0  0  0  0
   16.6790  -13.5240   13.5998 C   0  0  0  0  0  0  0  0  0  0  0  0
   18.7001  -11.3788   13.1882 C   0  0  0  0  0  0  0  0  0  0  0  0
   19.6492  -10.7468   17.8709 F   0  0  0  0  0  0  0  0  0  0  0  0
   14.9872  -13.3391   15.9637 O   0  0  0  0  0  0  0  0  0  0  0  0
   16.1330  -12.3781   13.7700 O   0  0  0  0  0  0  0  0  0  0  0  0
   18.3833  -12.3738   12.1250 C   0  0  0  0  0  0  0  0  0  0  0  0
   14.1163  -13.0280   17.0007 C   0  0  0  0  0  0  0  0  0  0  0  0
   18.8480  -10.2576   13.3733 N   0  0  0  0  0  0  0  0  0  0  0  0
   18.9708  -12.0475   14.9753 S   0  0  0  0  0  0  0  0  0  0  0  0
   19.1973   -7.2895   13.6404 F   0  0  0  0  0  0  0  0  0  0  0  0
   19.2590  -10.3245   15.5825 C   0  0  0  0  0  0  0  0  0  0  0  0
   19.5812   -7.7218   15.9008 C   0  0  0  0  0  0  0  0  0  0  0  0
   19.1226   -9.5552   14.4516 C   0  0  0  0  0  0  0  0  0  0  0  0
   19.5464   -9.8751   16.8631 C   0  0  0  0  0  0  0  0  0  0  0  0
   19.7134   -8.4982   17.0134 C   0  0  0  0  0  0  0  0  0  0  0  0
   19.2958   -8.1817   14.6363 C   0  0  0  0  0  0  0  0  0  0  0  0
   13.9271  -11.6048   17.2838 C   0  0  0  0  0  0  0  0  0  0  0  0
   13.1494  -11.0845   18.3067 O   0  0  0  0  0  0  0  0  0  0  0  0
   14.5256  -10.7707   16.5311 O   0  0  0  0  0  0  0  0  0  0  0  0
   17.7395  -13.5563   12.6781 N   0  0  0  0  0  0  0  0  0  0  0  0
  1  3  2  0
  1  4  1  0
  2  5  1  0
  4  5  2  0
  2  6  2  0
  3  6  1  0
  4  8  1  0
  6  9  1  0
  3 12  1  0
  9 13  2  0
 10 14  1  0
 12 15  1  0
 10 16  2  0
 10 17  1  0
 17 19  1  0
  7 20  1  0
 16 21  1  0
 19 21  2  0
 11 22  1  0
 19 22  1  0
 20 23  1  0
 22 23  2  0
 18 24  1  0
 20 24  2  0
 21 24  1  0
 15 25  1  0
 25 26  1  0
 25 27  2  0
  9 28  1  0
 14 28  1  0
M  END
$$$$
