1T40_ID5_A_320
     RDKit          3D

 28 30  0  0  0  0  0  0  0  0999 V2000
   16.9239   -9.8311   15.0093 C   0  0  0  0  0  0  0  0  0  0  0  0
   17.2613  -10.2298   12.3407 C   0  0  0  0  0  0  0  0  0  0  0  0
   17.3588  -11.0722   14.5263 C   0  0  0  0  0  0  0  0  0  0  0  0
   16.6549   -8.7816   14.1570 C   0  0  0  0  0  0  0  0  0  0  0  0
   16.8342   -9.0111   12.8117 C   0  0  0  0  0  0  0  0  0  0  0  0
   17.5399  -11.3088   13.1888 C   0  0  0  0  0  0  0  0  0  0  0  0
   25.8215  -14.7859   12.6450 F   0  0  0  0  0  0  0  0  0  0  0  0
   16.2341   -7.5674   14.5664 F   0  0  0  0  0  0  0  0  0  0  0  0
   17.9818  -12.5429   12.5908 C   0  0  0  0  0  0  0  0  0  0  0  0
   20.0994  -14.3632   11.3624 C   0  0  0  0  0  0  0  0  0  0  0  0
   22.1919  -16.5740   15.0989 F   0  0  0  0  0  0  0  0  0  0  0  0
   17.5997  -12.0449   15.4352 O   0  0  0  0  0  0  0  0  0  0  0  0
   18.1481  -13.5474   13.3676 O   0  0  0  0  0  0  0  0  0  0  0  0
   18.8045  -14.0208   10.7089 C   0  0  0  0  0  0  0  0  0  0  0  0
   17.6534  -11.9756   16.8218 C   0  0  0  0  0  0  0  0  0  0  0  0
   21.2332  -14.2270   11.2671 N   0  0  0  0  0  0  0  0  0  0  0  0
   20.0255  -15.3924   12.9901 S   0  0  0  0  0  0  0  0  0  0  0  0
   24.1640  -13.7553   10.8303 F   0  0  0  0  0  0  0  0  0  0  0  0
   21.8704  -15.3445   13.1108 C   0  0  0  0  0  0  0  0  0  0  0  0
   24.4671  -14.9728   12.7975 C   0  0  0  0  0  0  0  0  0  0  0  0
   22.2490  -14.6226   12.0041 C   0  0  0  0  0  0  0  0  0  0  0  0
   22.7078  -15.8927   14.0714 C   0  0  0  0  0  0  0  0  0  0  0  0
   24.0758  -15.6871   13.8906 C   0  0  0  0  0  0  0  0  0  0  0  0
   23.6246  -14.4348   11.8526 C   0  0  0  0  0  0  0  0  0  0  0  0
   18.0056  -13.2126   17.5198 C   0  0  0  0  0  0  0  0  0  0  0  0
   18.0872  -13.3649   18.8953 O   0  0  0  0  0  0  0  0  0  0  0  0
   18.2578  -14.2379   16.8087 O   0  0  0  0  0  0  0  0  0  0  0  0
   18.2566  -12.7782   11.2327 N   0  0  0  0  0  0  0  0  0  0  0  0
  1  3  2  0
  1  4  1  0
  2  5  1  0
  4  5  2  0
  2  6  2  0
  3  6  1  0
  4  8  1  0
  6  9  1  0
  3 12  1  0
  9 13  2  0
 10 14  1  0
 12 15  1  0
 10 16  2  0
 10 17  1  0
 17 19  1  0
  7 20  1  0
 16 21  1  0
 19 21  2  0
 11 22  1  0
 19 22  1  0
 20 23  1  0
 22 23  2  0
 18 24  1  0
 20 24  2  0
 21 24  1  0
 15 25  1  0
 25 26  1  0
 25 27  2  0
  9 28  1  0
 14 28  1  0
M  END
$$$$
