1T40_ID5_A_320
     RDKit          3D

 28 30  0  0  0  0  0  0  0  0999 V2000
   18.1506  -16.1275   14.3640 C   0  0  0  0  0  0  0  0  0  0  0  0
   16.5201  -14.0931   13.5912 C   0  0  0  0  0  0  0  0  0  0  0  0
   17.7872  -15.1249   15.2723 C   0  0  0  0  0  0  0  0  0  0  0  0
   17.6989  -16.1165   13.0616 C   0  0  0  0  0  0  0  0  0  0  0  0
   16.8753  -15.0754   12.6977 C   0  0  0  0  0  0  0  0  0  0  0  0
   16.9676  -14.0853   14.9181 C   0  0  0  0  0  0  0  0  0  0  0  0
   17.7675   -4.9744   13.3042 F   0  0  0  0  0  0  0  0  0  0  0  0
   18.0167  -17.0544   12.1460 F   0  0  0  0  0  0  0  0  0  0  0  0
   16.5352  -13.0080   15.7717 C   0  0  0  0  0  0  0  0  0  0  0  0
   15.9232   -9.9106   15.9118 C   0  0  0  0  0  0  0  0  0  0  0  0
   20.3242   -7.9465   15.9543 F   0  0  0  0  0  0  0  0  0  0  0  0
   18.2766  -15.2163   16.5303 O   0  0  0  0  0  0  0  0  0  0  0  0
   17.3047  -12.6795   16.7412 O   0  0  0  0  0  0  0  0  0  0  0  0
   15.0786  -11.0369   16.4007 C   0  0  0  0  0  0  0  0  0  0  0  0
   19.0570  -16.2072   17.1131 C   0  0  0  0  0  0  0  0  0  0  0  0
   15.8901   -8.9495   15.2886 N   0  0  0  0  0  0  0  0  0  0  0  0
   17.7746   -9.8943   16.4467 S   0  0  0  0  0  0  0  0  0  0  0  0
   15.5874   -6.4744   13.6196 F   0  0  0  0  0  0  0  0  0  0  0  0
   18.0353   -8.3171   15.5167 C   0  0  0  0  0  0  0  0  0  0  0  0
   17.8511   -6.1206   14.0605 C   0  0  0  0  0  0  0  0  0  0  0  0
   16.7984   -8.0484   14.9810 C   0  0  0  0  0  0  0  0  0  0  0  0
   19.1867   -7.5571   15.3707 C   0  0  0  0  0  0  0  0  0  0  0  0
   19.0717   -6.4007   14.5987 C   0  0  0  0  0  0  0  0  0  0  0  0
   16.7173   -6.8841   14.2139 C   0  0  0  0  0  0  0  0  0  0  0  0
   19.4113  -16.0104   18.5192 C   0  0  0  0  0  0  0  0  0  0  0  0
   20.1920  -16.8672   19.2796 O   0  0  0  0  0  0  0  0  0  0  0  0
   18.9690  -14.9657   19.0966 O   0  0  0  0  0  0  0  0  0  0  0  0
   15.3485  -12.2628   15.6638 N   0  0  0  0  0  0  0  0  0  0  0  0
  1  3  2  0
  1  4  1  0
  2  5  1  0
  4  5  2  0
  2  6  2  0
  3  6  1  0
  4  8  1  0
  6  9  1  0
  3 12  1  0
  9 13  2  0
 10 14  1  0
 12 15  1  0
 10 16  2  0
 10 17  1  0
 17 19  1  0
  7 20  1  0
 16 21  1  0
 19 21  2  0
 11 22  1  0
 19 22  1  0
 20 23  1  0
 22 23  2  0
 18 24  1  0
 20 24  2  0
 21 24  1  0
 15 25  1  0
 25 26  1  0
 25 27  2  0
  9 28  1  0
 14 28  1  0
M  END
$$$$
