
     RDKit          3D

 23 26  0  0  0  0  0  0  0  0999 V2000
   26.2868   13.0290  -24.9930 C   0  0  0  0  0  0  0  0  0  0  0  0
   27.8226   11.1612  -24.6142 C   0  0  0  0  0  0  0  0  0  0  0  0
   28.8605   11.8286  -23.9167 C   0  0  0  0  0  0  0  0  0  0  0  0
   29.9412   10.9756  -23.9542 C   0  0  0  0  0  0  0  0  0  0  0  0
   31.3123   11.0794  -23.4117 C   0  0  0  0  0  0  0  0  0  0  0  0
   23.7589   12.6924  -24.7732 C   0  0  0  0  0  0  0  0  0  0  0  0
   22.8307   15.7274  -27.8784 C   0  0  0  0  0  0  0  0  0  0  0  0
   24.9721   15.1111  -27.2488 C   0  0  0  0  0  0  0  0  0  0  0  0
   24.3985   14.2236  -26.3221 C   0  0  0  0  0  0  0  0  0  0  0  0
   20.7381   11.6825  -25.7670 C   0  0  0  0  0  0  0  0  0  0  0  0
   20.7460   13.0627  -23.5776 C   0  0  0  0  0  0  0  0  0  0  0  0
   27.0743   13.9645  -24.9135 O   0  0  0  0  0  0  0  0  0  0  0  0
   26.5655   11.6932  -24.7990 N   0  0  0  0  0  0  0  0  0  0  0  0
   29.5086    9.8817  -24.6492 N   0  0  0  0  0  0  0  0  0  0  0  0
   28.2390    9.9783  -25.0608 N   0  0  0  0  0  0  0  0  0  0  0  0
   24.8826   13.2818  -25.3424 C   0  0  0  0  0  0  0  0  0  0  0  0
   22.6559   13.2592  -25.3487 N   0  0  0  0  0  0  0  0  0  0  0  0
   23.0090   14.1807  -26.2940 C   0  0  0  0  0  0  0  0  0  0  0  0
   22.1672   14.9060  -27.0518 N   0  0  0  0  0  0  0  0  0  0  0  0
   24.1613   15.8705  -28.0130 N   0  0  0  0  0  0  0  0  0  0  0  0
   26.3355   15.2524  -27.4415 N   0  0  0  0  0  0  0  0  0  0  0  0
   21.2510   12.8790  -25.0017 C   0  0  0  0  0  0  0  0  0  0  0  0
   20.2425   13.9645  -24.6614 C   0  0  0  0  0  0  0  0  0  0  0  0
  2  3  4  0
  3  4  4  0
  4  5  1  0
  8  9  4  0
  1 12  2  0
  2 13  1  0
  1 13  1  0
  4 14  4  0
 14 15  4  0
  2 15  4  0
  6 16  4  0
  1 16  1  0
  9 16  4  0
  6 17  4  0
 17 18  4  0
  9 18  4  0
 18 19  4  0
  7 19  4  0
  8 20  4  0
  7 20  4  0
  8 21  1  0
 11 22  1  0
 17 22  1  0
 10 22  1  0
 11 23  1  0
 22 23  1  0
M  END
