6M2B_EZO_A_403
     RDKit          3D

 25 27  0  0  0  0  0  0  0  0999 V2000
   36.5214    2.9201   13.0028 C   0  0  0  0  0  0  0  0  0  0  0  0
   36.0763    3.4064   11.8168 C   0  0  0  0  0  0  0  0  0  0  0  0
   34.8704    4.0624   11.7893 C   0  0  0  0  0  0  0  0  0  0  0  0
   34.0726    4.2576   12.9198 C   0  0  0  0  0  0  0  0  0  0  0  0
   34.5224    3.7649   14.1222 C   0  0  0  0  0  0  0  0  0  0  0  0
   35.7516    3.1023   14.1223 C   0  0  0  0  0  0  0  0  0  0  0  0
   33.8303    3.8694   15.3765 C   0  0  0  0  0  0  0  0  0  0  0  0
   32.8341    4.9667   12.7461 C   0  0  0  0  0  0  0  0  0  0  0  0
   29.8966    6.0854   13.2130 C   0  0  0  0  0  0  0  0  0  0  0  0
   32.9361    4.8174   15.8044 O   0  0  0  0  0  0  0  0  0  0  0  0
   34.0608    2.9541   16.2497 O   0  0  0  0  0  0  0  0  0  0  0  0
   32.3754    5.9804   13.3506 N   0  0  0  0  0  0  0  0  0  0  0  0
   31.2019    6.5933   12.9966 N   0  0  0  0  0  0  0  0  0  0  0  0
   28.7499    6.3521   13.1454 N   0  0  0  0  0  0  0  0  0  0  0  0
   27.6776    5.6542   13.4154 C   0  0  0  0  0  0  0  0  0  0  0  0
   27.9818    4.3581   13.8645 C   0  0  0  0  0  0  0  0  0  0  0  0
   29.8130    4.2665   13.8551 S   0  0  0  0  0  0  0  0  0  0  0  0
   26.3017    6.1163   13.2873 C   0  0  0  0  0  0  0  0  0  0  0  0
   25.2943    5.2804   12.8371 C   0  0  0  0  0  0  0  0  0  0  0  0
   23.9952    5.7729   12.7318 C   0  0  0  0  0  0  0  0  0  0  0  0
   23.6560    7.0634   13.0563 C   0  0  0  0  0  0  0  0  0  0  0  0
   24.6784    7.8965   13.5091 C   0  0  0  0  0  0  0  0  0  0  0  0
   25.9458    7.4002   13.6068 C   0  0  0  0  0  0  0  0  0  0  0  0
   25.6708    3.6218   12.4074 Cl  0  0  0  0  0  0  0  0  0  0  0  0
   31.2840    7.8960   12.3256 C   0  0  0  0  0  0  0  0  0  0  0  0
  1  2  2  0
  2  3  1  0
  3  4  2  0
  4  5  1  0
  1  6  1  0
  5  6  2  0
  5  7  1  0
  4  8  1  0
  7 10  1  0
  7 11  2  0
  8 12  2  0
  9 13  1  0
 12 13  1  0
  9 14  2  0
 14 15  1  0
 15 16  2  0
 16 17  1  0
  9 17  1  0
 15 18  1  0
 18 19  2  0
 19 20  1  0
 20 21  2  0
 21 22  1  0
 22 23  2  0
 18 23  1  0
 19 24  1  0
 13 25  1  0
M  END
$$$$
