7DQL_4CL_B_301
     RDKit          3D

  9  9  0  0  0  0  0  0  0  0999 V2000
   15.4457    2.6499   11.9143 Cl  0  0  0  0  0  0  0  0  0  0  0  0
   16.0910    1.5925   13.1646 C   0  0  0  0  0  0  0  0  0  0  0  0
   15.5297    1.6437   14.4391 C   0  0  0  0  0  0  0  0  0  0  0  0
   16.0501    0.8071   15.4035 C   0  0  0  0  0  0  0  0  0  0  0  0
   17.0894   -0.0676   15.1645 C   0  0  0  0  0  0  0  0  0  0  0  0
   17.5368   -0.8624   16.1991 O   0  0  0  0  0  0  0  0  0  0  0  0
   17.6227   -0.0936   13.8922 C   0  0  0  0  0  0  0  0  0  0  0  0
   17.1472    0.7179   12.8828 C   0  0  0  0  0  0  0  0  0  0  0  0
   18.6687   -0.9703   13.6418 O   0  0  0  0  0  0  0  0  0  0  0  0
  1  2  1  0
  2  3  2  0
  3  4  1  0
  4  5  2  0
  5  6  1  0
  5  7  1  0
  2  8  1  0
  7  8  2  0
  7  9  1  0
M  END
$$$$
