
     RDKit          3D

 19 21  0  0  0  0  0  0  0  0999 V2000
   40.8000    3.6247    7.9926 C   0  0  0  0  0  0  0  0  0  0  0  0
   41.3610    3.8518    9.3413 C   0  0  0  0  0  0  0  0  0  0  0  0
   41.8478    3.0047   10.3232 C   0  0  0  0  0  0  0  0  0  0  0  0
   41.9390    1.5250   10.2756 C   0  0  0  0  0  0  0  0  0  0  0  0
   42.2438    3.8522   11.4039 C   0  0  0  0  0  0  0  0  0  0  0  0
   42.8036    3.6590   12.6827 C   0  0  0  0  0  0  0  0  0  0  0  0
   43.0767    4.7714   13.5087 C   0  0  0  0  0  0  0  0  0  0  0  0
   42.7812    6.0627   13.0322 C   0  0  0  0  0  0  0  0  0  0  0  0
   42.2233    6.2805   11.7654 C   0  0  0  0  0  0  0  0  0  0  0  0
   41.9747    5.1501   10.9946 C   0  0  0  0  0  0  0  0  0  0  0  0
   41.4392    5.1500    9.7456 O   0  0  0  0  0  0  0  0  0  0  0  0
   43.6607    4.5802   14.8461 C   0  0  0  0  0  0  0  0  0  0  0  0
   43.6088    3.3402   15.4895 C   0  0  0  0  0  0  0  0  0  0  0  0
   44.1788    3.2017   16.7459 C   0  0  0  0  0  0  0  0  0  0  0  0
   44.1576    1.9690   17.3968 N   0  0  0  0  0  0  0  0  0  0  0  0
   44.7970    4.2071   17.3849 N   0  0  0  0  0  0  0  0  0  0  0  0
   44.8441    5.4000   16.7711 C   0  0  0  0  0  0  0  0  0  0  0  0
   45.5112    6.4211   17.4456 N   0  0  0  0  0  0  0  0  0  0  0  0
   44.2988    5.6278   15.5165 C   0  0  0  0  0  0  0  0  0  0  0  0
  1  2  1  0
  2  3  4  0
  3  4  1  0
  3  5  4  0
  5  6  4  0
  6  7  4  0
  7  8  4  0
  8  9  4  0
  5 10  4  0
  9 10  4  0
  2 11  4  0
 10 11  4  0
  7 12  1  0
 12 13  4  0
 13 14  4  0
 14 15  1  0
 14 16  4  0
 16 17  4  0
 17 18  1  0
 17 19  4  0
 12 19  4  0
M  END
