1UOU_CMU_A_1481
     RDKit          3D

 16 17  0  0  0  0  0  0  0  0999 V2000
  -13.2532   -8.8174    5.2569 Cl  0  0  0  0  0  0  0  0  0  0  0  0
  -14.1089  -10.2007    5.9352 C   0  0  0  0  0  0  0  0  0  0  0  0
  -13.7350  -10.6716    7.2055 C   0  0  0  0  0  0  0  0  0  0  0  0
  -12.6306   -9.9956    7.8756 C   0  0  0  0  0  0  0  0  0  0  0  0
  -12.2443  -10.5261    9.1643 N   0  0  0  0  0  0  0  0  0  0  0  0
  -12.8780  -11.5840    9.9347 C   0  0  0  0  0  0  0  0  0  0  0  0
  -11.7135  -12.3819   10.5237 C   0  0  0  0  0  0  0  0  0  0  0  0
  -10.5925  -11.3975   10.5742 C   0  0  0  0  0  0  0  0  0  0  0  0
  -11.1098  -10.1453    9.9680 C   0  0  0  0  0  0  0  0  0  0  0  0
  -10.6881   -8.9277   10.0845 N   0  0  0  0  0  0  0  0  0  0  0  0
  -14.4345  -11.7131    7.6613 N   0  0  0  0  0  0  0  0  0  0  0  0
  -15.4344  -12.2781    6.9478 C   0  0  0  0  0  0  0  0  0  0  0  0
  -16.0981  -13.2714    7.3888 O   0  0  0  0  0  0  0  0  0  0  0  0
  -15.7979  -11.8324    5.7255 N   0  0  0  0  0  0  0  0  0  0  0  0
  -15.1358  -10.7990    5.2250 C   0  0  0  0  0  0  0  0  0  0  0  0
  -15.4188  -10.3293    4.0865 O   0  0  0  0  0  0  0  0  0  0  0  0
  1  2  1  0
  2  3  2  0
  3  4  1  0
  4  5  1  0
  5  6  1  0
  6  7  1  0
  7  8  1  0
  5  9  1  0
  8  9  1  0
  9 10  2  0
  3 11  1  0
 11 12  1  0
 12 13  2  0
 12 14  1  0
  2 15  1  0
 14 15  1  0
 15 16  2  0
M  END
$$$$
