1UOU_CMU_A_1481
     RDKit          3D

 16 17  0  0  0  0  0  0  0  0999 V2000
   -2.0219   21.0200   14.1814 Cl  0  0  0  0  0  0  0  0  0  0  0  0
   -2.4598   22.1139   15.4918 C   0  0  0  0  0  0  0  0  0  0  0  0
   -2.7018   21.5784   16.7686 C   0  0  0  0  0  0  0  0  0  0  0  0
   -2.6022   20.1318   16.9214 C   0  0  0  0  0  0  0  0  0  0  0  0
   -2.4610   19.6406   18.2742 N   0  0  0  0  0  0  0  0  0  0  0  0
   -2.4278   20.3994   19.5140 C   0  0  0  0  0  0  0  0  0  0  0  0
   -3.2414   19.5604   20.5009 C   0  0  0  0  0  0  0  0  0  0  0  0
   -3.1317   18.1708   19.9669 C   0  0  0  0  0  0  0  0  0  0  0  0
   -2.3559   18.2691   18.7053 C   0  0  0  0  0  0  0  0  0  0  0  0
   -1.6959   17.3619   18.0609 N   0  0  0  0  0  0  0  0  0  0  0  0
   -3.0155   22.4664   17.7144 N   0  0  0  0  0  0  0  0  0  0  0  0
   -3.0968   23.7920   17.4607 C   0  0  0  0  0  0  0  0  0  0  0  0
   -3.3963   24.6338   18.3680 O   0  0  0  0  0  0  0  0  0  0  0  0
   -2.8678   24.3137   16.2359 N   0  0  0  0  0  0  0  0  0  0  0  0
   -2.5516   23.4757   15.2590 C   0  0  0  0  0  0  0  0  0  0  0  0
   -2.3261   23.8913   14.0871 O   0  0  0  0  0  0  0  0  0  0  0  0
  1  2  1  0
  2  3  2  0
  3  4  1  0
  4  5  1  0
  5  6  1  0
  6  7  1  0
  7  8  1  0
  5  9  1  0
  8  9  1  0
  9 10  2  0
  3 11  1  0
 11 12  1  0
 12 13  2  0
 12 14  1  0
  2 15  1  0
 14 15  1  0
 15 16  2  0
M  END
$$$$
