
     RDKit          3D

 22 24  0  0  0  0  0  0  0  0999 V2000
  -31.6000    2.0006  -11.8321 C   0  0  0  0  0  0  0  0  0  0  0  0
  -33.4727    3.3405  -12.8670 C   0  0  0  0  0  0  0  0  0  0  0  0
  -35.5066    4.1748  -13.5722 C   0  0  0  0  0  0  0  0  0  0  0  0
  -33.3745    4.2817  -11.8286 C   0  0  0  0  0  0  0  0  0  0  0  0
  -32.2101    4.2634  -10.9297 C   0  0  0  0  0  0  0  0  0  0  0  0
  -34.9902    7.7126   -9.8140 C   0  0  0  0  0  0  0  0  0  0  0  0
  -34.7356    7.8987   -8.3125 C   0  0  0  0  0  0  0  0  0  0  0  0
  -34.6570    9.4076   -8.0160 C   0  0  0  0  0  0  0  0  0  0  0  0
  -35.8884    7.2978   -7.5007 C   0  0  0  0  0  0  0  0  0  0  0  0
  -33.4086    7.2203   -7.8968 C   0  0  0  0  0  0  0  0  0  0  0  0
  -32.1405    7.6565   -8.6284 C   0  0  0  0  0  0  0  0  0  0  0  0
  -30.9625    5.2811   -9.2992 C   0  0  0  0  0  0  0  0  0  0  0  0
  -30.2568    3.2656  -10.1054 C   0  0  0  0  0  0  0  0  0  0  0  0
  -31.3287    3.1917  -10.9639 C   0  0  0  0  0  0  0  0  0  0  0  0
  -32.3228    2.3948  -13.1212 C   0  0  0  0  0  0  0  0  0  0  0  0
  -35.5030    5.1514  -12.5930 C   0  0  0  0  0  0  0  0  0  0  0  0
  -34.4213    5.2041  -11.7169 C   0  0  0  0  0  0  0  0  0  0  0  0
  -30.0394    4.3075   -9.2882 N   0  0  0  0  0  0  0  0  0  0  0  0
  -34.5154    3.2740  -13.7342 N   0  0  0  0  0  0  0  0  0  0  0  0
  -32.0480    5.3111  -10.0930 N   0  0  0  0  0  0  0  0  0  0  0  0
  -33.3967    6.3753   -6.9981 O   0  0  0  0  0  0  0  0  0  0  0  0
  -30.6844    6.6565   -8.2144 S   0  0  0  0  0  0  0  0  0  0  0  0
  2  4  4  0
  4  5  1  0
  6  7  1  0
  7  8  1  0
  7  9  1  0
  7 10  1  0
 10 11  1  0
  1 14  1  0
  5 14  4  0
 13 14  4  0
  2 15  1  0
  1 15  1  0
  3 16  4  0
 16 17  4  0
  4 17  4  0
 13 18  4  0
 12 18  4  0
  3 19  4  0
  2 19  4  0
  5 20  4  0
 12 20  4  0
 10 21  2  0
 12 22  1  0
 11 22  1  0
M  END
