1L2S_STC_B_2115
     RDKit          3D

 19 20  0  0  0  0  0  0  0  0999 V2000
   34.2661    4.6627    1.2884 N   0  0  0  0  0  0  0  0  0  0  0  0
   35.3146    5.4078    0.7685 C   0  0  0  0  0  0  0  0  0  0  0  0
   35.3775    6.0835   -0.4182 C   0  0  0  0  0  0  0  0  0  0  0  0
   36.4999    5.4392    1.5346 C   0  0  0  0  0  0  0  0  0  0  0  0
   36.4854    6.7591   -0.8772 C   0  0  0  0  0  0  0  0  0  0  0  0
   37.6193    6.1035    1.1038 C   0  0  0  0  0  0  0  0  0  0  0  0
   37.6227    6.7661   -0.0992 C   0  0  0  0  0  0  0  0  0  0  0  0
   39.0605    7.5955   -0.6084 Cl  0  0  0  0  0  0  0  0  0  0  0  0
   32.8745    4.0103    0.6057 S   0  0  2  0  0  6  0  0  0  0  0  0
   33.1094    3.5167   -1.0700 C   0  0  0  0  0  0  0  0  0  0  0  0
   31.6791    4.9256    0.7133 O   0  0  0  0  0  0  0  0  0  0  0  0
   32.4644    2.7710    1.3894 O   0  0  0  0  0  0  0  0  0  0  0  0
   34.0938    2.5819   -1.4184 C   0  0  0  0  0  0  0  0  0  0  0  0
   32.3524    3.9436   -2.0896 C   0  0  0  0  0  0  0  0  0  0  0  0
   34.0038    2.2647   -3.1420 S   0  0  0  0  0  0  0  0  0  0  0  0
   35.1170    1.9525   -0.5822 C   0  0  0  0  0  0  0  0  0  0  0  0
   32.5780    3.4638   -3.3302 C   0  0  0  0  0  0  0  0  0  0  0  0
   36.0633    1.0928   -1.1703 O   0  0  0  0  0  0  0  0  0  0  0  0
   35.2281    2.1162    0.6471 O   0  0  0  0  0  0  0  0  0  0  0  0
  1  2  1  0
  2  3  2  0
  2  4  1  0
  3  5  1  0
  4  6  2  0
  5  7  2  0
  6  7  1  0
  7  8  1  0
  9  1  1  1
  9 10  1  0
  9 11  2  0
  9 12  2  0
 10 13  2  0
 10 14  1  0
 13 15  1  0
 13 16  1  0
 14 17  2  0
 15 17  1  0
 16 18  1  0
 16 19  2  0
M  END
$$$$
