7WCF_ACP_A_401
     RDKit          3D

 49 51  0  0  0  0  0  0  0  0999 V2000
   -2.7632    1.1472   -0.4942 P   0  0  2  0  0  5  0  0  0  0  0  0
   -1.9962    0.4676   -1.6055 O   0  0  0  0  0  0  0  0  0  0  0  0
   -3.7023    2.3935   -1.1518 O   0  0  0  0  0  0  0  0  0  0  0  0
   -1.6711    1.7979    0.6244 O   0  0  0  0  0  0  0  0  0  0  0  0
   -3.5920   -1.7300   -0.3467 P   0  0  2  0  0  5  0  0  0  0  0  0
   -2.5584   -1.6913   -1.4543 O   0  0  0  0  0  0  0  0  0  0  0  0
   -5.0563   -2.2791   -0.9932 O   0  0  0  0  0  0  0  0  0  0  0  0
   -3.8543   -0.0563    0.3258 C   0  0  0  0  0  0  0  0  0  0  0  0
   -2.6947   -1.8525    2.2695 P   0  0  2  0  0  5  0  0  0  0  0  0
   -2.4850   -0.4181    1.8334 O   0  0  0  0  0  0  0  0  0  0  0  0
   -1.2381   -2.4567    2.8836 O   0  0  0  0  0  0  0  0  0  0  0  0
   -3.1400   -2.7863    0.9160 O   0  0  0  0  0  0  0  0  0  0  0  0
   -3.8966   -1.9382    3.4776 O   0  0  0  0  0  0  0  0  0  0  0  0
   -3.6811   -3.0976    4.2465 C   0  0  0  0  0  0  0  0  0  0  0  0
   -2.1764   -3.3835    4.3203 C   0  0  1  0  0  0  0  0  0  0  0  0
   -1.6015   -3.1499    3.0497 O   0  0  0  0  0  0  0  0  0  0  0  0
   -1.4773   -2.4976    5.3649 C   0  0  1  0  0  0  0  0  0  0  0  0
   -0.5638   -3.2432    6.1376 O   0  0  0  0  0  0  0  0  0  0  0  0
   -0.7894   -1.4530    4.5170 C   0  0  1  0  0  0  0  0  0  0  0  0
    0.4383   -1.0419    5.0613 O   0  0  0  0  0  0  0  0  0  0  0  0
   -0.5862   -2.1809    3.1979 C   0  0  2  0  0  0  0  0  0  0  0  0
   -0.6127   -1.2400    2.0755 N   0  0  0  0  0  4  0  0  0  0  0  0
    0.3846   -0.4043    1.6843 C   0  0  0  0  0  0  0  0  0  0  0  0
    0.0277    0.4245    0.6640 N   0  0  0  0  0  0  0  0  0  0  0  0
   -1.2532    0.0763    0.4334 C   0  0  0  0  0  0  0  0  0  0  0  0
   -2.1602    0.5988   -0.4819 C   0  0  0  0  0  0  0  0  0  0  0  0
   -1.7974    1.6363   -1.3931 N   0  0  0  0  0  0  0  0  0  0  0  0
   -3.4276    0.0859   -0.4814 N   0  0  0  0  0  0  0  0  0  0  0  0
   -3.7972   -0.9052    0.3931 C   0  0  0  0  0  0  0  0  0  0  0  0
   -2.8965   -1.4106    1.2884 N   0  0  0  0  0  0  0  0  0  0  0  0
   -1.6381   -0.9063    1.2794 C   0  0  0  0  0  0  0  0  0  0  0  0
   -4.1501    2.8117   -0.3740 H   0  0  0  0  0  0  0  0  0  0  0  0
   -2.2396    2.1941    1.3319 H   0  0  0  0  0  0  0  0  0  0  0  0
   -4.8536   -3.1831   -1.3468 H   0  0  0  0  0  0  0  0  0  0  0  0
   -3.6457   -0.0473    1.4130 H   0  0  0  0  0  0  0  0  0  0  0  0
   -4.9115    0.2386    0.1620 H   0  0  0  0  0  0  0  0  0  0  0  0
   -1.4322   -3.4026    3.1061 H   0  0  0  0  0  0  0  0  0  0  0  0
   -4.1851   -3.9808    3.7921 H   0  0  0  0  0  0  0  0  0  0  0  0
   -4.0596   -2.9484    5.2835 H   0  0  0  0  0  0  0  0  0  0  0  0
   -2.0434   -4.4582    4.5757 H   0  0  0  0  0  0  0  0  0  0  0  0
   -2.1968   -2.0070    6.0578 H   0  0  0  0  0  0  0  0  0  0  0  0
    0.0789   -3.6838    5.5210 H   0  0  0  0  0  0  0  0  0  0  0  0
   -1.4686   -0.5789    4.3722 H   0  0  0  0  0  0  0  0  0  0  0  0
    0.2196   -0.4327    5.8138 H   0  0  0  0  0  0  0  0  0  0  0  0
    0.3932   -2.7115    3.2045 H   0  0  0  0  0  0  0  0  0  0  0  0
    1.3636   -0.3836    2.1463 H   0  0  0  0  0  0  0  0  0  0  0  0
   -2.4984    2.0046   -2.0747 H   0  0  0  0  0  0  0  0  0  0  0  0
   -0.8303    2.0307   -1.4013 H   0  0  0  0  0  0  0  0  0  0  0  0
   -4.8081   -1.2893    0.3742 H   0  0  0  0  0  0  0  0  0  0  0  0
  1  2  2  0
  1  3  1  6
  1  4  1  0
  5  6  2  0
  5  7  1  6
  1  8  1  0
  5  8  1  0
  9 10  2  0
  9 11  1  1
  5 12  1  0
  9 12  1  0
  9 13  1  0
 13 14  1  0
 15 14  1  0
 15 16  1  0
 15 17  1  0
 17 18  1  0
 17 19  1  0
 19 20  1  0
 16 21  1  0
 19 21  1  0
 21 22  1  0
 22 23  4  0
 23 24  4  0
 24 25  4  0
 25 26  4  0
 26 27  1  0
 26 28  4  0
 28 29  4  0
 29 30  4  0
 22 31  4  0
 25 31  4  0
 30 31  4  0
  3 32  1  0
  4 33  1  0
  7 34  1  0
  8 35  1  0
  8 36  1  0
 11 37  1  0
 14 38  1  0
 14 39  1  0
 15 40  1  1
 17 41  1  1
 18 42  1  0
 19 43  1  6
 20 44  1  0
 21 45  1  1
 23 46  1  0
 27 47  1  0
 27 48  1  0
 29 49  1  0
M  CHG  1  22   1
M  END
