7RKW_5TV_A_502
     RDKit          3D

 25 27  0  0  0  0  0  0  0  0999 V2000
   18.1945   -7.1468   17.4740 C   0  0  0  0  0  0  0  0  0  0  0  0
   15.9185   -8.4773   15.3744 C   0  0  0  0  0  0  0  0  0  0  0  0
   21.2854   -8.3991   19.9619 F   0  0  0  0  0  0  0  0  0  0  0  0
   20.2698   -7.9880   19.1458 C   0  0  0  0  0  0  0  0  0  0  0  0
   20.5250   -7.5973   17.8389 C   0  0  0  0  0  0  0  0  0  0  0  0
   19.5077   -7.1825   17.0122 C   0  0  0  0  0  0  0  0  0  0  0  0
   17.9462   -7.5386   18.7813 C   0  0  0  0  0  0  0  0  0  0  0  0
   18.9639   -7.9599   19.6278 C   0  0  0  0  0  0  0  0  0  0  0  0
   17.1083   -6.7047   16.5939 C   0  0  2  0  0  0  0  0  0  0  0  0
   16.9221   -7.5505   15.4754 O   0  0  0  0  0  0  0  0  0  0  0  0
   15.0562   -8.6437   16.3004 O   0  0  0  0  0  0  0  0  0  0  0  0
   15.7984   -9.3108   14.2004 C   0  0  0  0  0  0  0  0  0  0  0  0
   16.7661   -9.3450   13.2167 C   0  0  0  0  0  0  0  0  0  0  0  0
   16.6936  -10.1151   12.0952 C   0  0  0  0  0  0  0  0  0  0  0  0
   17.9776  -10.0838   10.9084 Cl  0  0  0  0  0  0  0  0  0  0  0  0
   15.5783  -10.9133   11.9331 C   0  0  0  0  0  0  0  0  0  0  0  0
   14.5643  -10.9243   12.8915 C   0  0  0  0  0  0  0  0  0  0  0  0
   14.6916  -10.1225   14.0095 C   0  0  0  0  0  0  0  0  0  0  0  0
   13.1552  -11.9454   12.6673 Cl  0  0  0  0  0  0  0  0  0  0  0  0
   17.1962   -5.2631   16.1676 C   0  0  0  0  0  0  0  0  0  0  0  0
   15.9799   -4.7446   15.6042 N   0  0  0  0  0  0  0  0  0  0  0  0
   14.9694   -4.2031   16.3413 C   0  0  0  0  0  0  0  0  0  0  0  0
   13.9951   -3.8239   15.4958 N   0  0  0  0  0  0  0  0  0  0  0  0
   14.3917   -4.1248   14.2430 C   0  0  0  0  0  0  0  0  0  0  0  0
   15.6420   -4.7060   14.2972 C   0  0  0  0  0  0  0  0  0  0  0  0
  3  4  1  0
  4  5  2  0
  5  6  1  0
  1  6  2  0
  1  7  1  0
  4  8  1  0
  7  8  2  0
  1  9  1  0
  9 10  1  0
  2 10  1  0
  2 11  2  0
  2 12  1  0
 12 13  2  0
 13 14  1  0
 14 15  1  0
 14 16  2  0
 16 17  1  0
 12 18  1  0
 17 18  2  0
 17 19  1  0
  9 20  1  6
 20 21  1  0
 21 22  1  0
 22 23  2  0
 23 24  1  0
 21 25  1  0
 24 25  2  0
M  END
$$$$
