6Z14_Q4Z_JJJ_1103
     RDKit          3D

 31 32  0  0  0  0  0  0  0  0999 V2000
   -3.6596    1.8502    3.2247 O   0  0  0  0  0  0  0  0  0  0  0  0
   -1.3661    2.2740    3.9624 O   0  0  0  0  0  0  0  0  0  0  0  0
   -2.2818    1.2615    3.3326 S   0  0  0  0  0  6  0  0  0  0  0  0
   -2.3539   -0.1137    4.2966 O   0  0  0  0  0  1  0  0  0  0  0  0
    1.9757   -0.8699   -0.6125 C   0  0  1  0  0  0  0  0  0  0  0  0
    1.1484   -1.7745   -1.5584 C   0  0  1  0  0  0  0  0  0  0  0  0
   -0.1403   -2.2843   -0.8958 C   0  0  2  0  0  0  0  0  0  0  0  0
   -0.9123   -1.1383   -0.1986 C   0  0  1  0  0  0  0  0  0  0  0  0
    0.0462   -0.1304    0.5061 C   0  0  1  0  0  0  0  0  0  0  0  0
   -0.4730    0.2510    1.8973 C   0  0  0  0  0  0  0  0  0  0  0  0
    1.4325    0.2330   -2.5371 C   0  0  0  0  0  0  0  0  0  0  0  0
    1.3392    1.3400   -3.5326 C   0  0  0  0  0  0  0  0  0  0  0  0
    0.8610   -0.9106   -2.6971 N   0  0  0  0  0  4  0  0  0  0  0  0
    2.1147    0.3445   -1.3402 O   0  0  0  0  0  0  0  0  0  0  0  0
    0.2010   -3.2691    0.0472 O   0  0  0  0  0  0  0  0  0  0  0  0
   -1.6907   -0.4441   -1.1412 O   0  0  0  0  0  0  0  0  0  0  0  0
    1.3567   -0.6573    0.6487 O   0  0  0  0  0  0  0  0  0  0  0  0
   -1.7346    0.8652    1.7797 O   0  0  0  0  0  0  0  0  0  0  0  0
    2.9816   -1.3119   -0.4487 H   0  0  0  0  0  0  0  0  0  0  0  0
    1.7614   -2.6361   -1.9055 H   0  0  0  0  0  0  0  0  0  0  0  0
   -0.7800   -2.7453   -1.6854 H   0  0  0  0  0  0  0  0  0  0  0  0
   -1.5946   -1.5998    0.5555 H   0  0  0  0  0  0  0  0  0  0  0  0
    0.0845    0.8208   -0.0741 H   0  0  0  0  0  0  0  0  0  0  0  0
   -0.5333   -0.6688    2.5221 H   0  0  0  0  0  0  0  0  0  0  0  0
    0.2563    0.9551    2.3581 H   0  0  0  0  0  0  0  0  0  0  0  0
    1.6225    0.9666   -4.5389 H   0  0  0  0  0  0  0  0  0  0  0  0
    2.0250    2.1642   -3.2461 H   0  0  0  0  0  0  0  0  0  0  0  0
    0.2989    1.7257   -3.5616 H   0  0  0  0  0  0  0  0  0  0  0  0
    0.3033   -1.1854   -3.5369 H   0  0  0  0  0  0  0  0  0  0  0  0
   -0.6202   -3.7996    0.2214 H   0  0  0  0  0  0  0  0  0  0  0  0
   -2.4755   -1.0161   -1.3486 H   0  0  0  0  0  0  0  0  0  0  0  0
  2  3  2  0
  1  3  2  0
  3  4  1  0
  5  6  1  0
  6  7  1  0
  7  8  1  0
  8  9  1  0
  9 10  1  0
 11 12  1  0
  6 13  1  0
 11 13  2  0
 11 14  1  0
  5 14  1  0
  7 15  1  0
  8 16  1  0
  9 17  1  0
  5 17  1  0
 10 18  1  0
  3 18  1  0
  5 19  1  1
  6 20  1  6
  7 21  1  6
  8 22  1  1
  9 23  1  6
 10 24  1  0
 10 25  1  0
 12 26  1  0
 12 27  1  0
 12 28  1  0
 13 29  1  0
 15 30  1  0
 16 31  1  0
M  CHG  2   4  -1  13   1
M  END
