7QK0_EBL_A_201
     RDKit          3D

 38 43  0  0  0  0  0  0  0  0999 V2000
  -33.5490   22.9670   14.4220 C   0  0  0  0  0  0  0  0  0  0  0  0
  -31.5848   23.8531   15.7675 C   0  0  2  0  0  0  0  0  0  0  0  0
  -30.1006   24.1635   15.7110 C   0  0  1  0  0  0  0  0  0  0  0  0
  -29.6584   25.5824   15.5683 C   0  0  0  0  0  0  0  0  0  0  0  0
  -29.4630   24.8721   16.8601 C   0  0  0  0  0  0  0  0  0  0  0  0
  -33.0459   22.5150   17.2011 C   0  0  0  0  0  0  0  0  0  0  0  0
  -33.4043   20.1530   24.9677 C   0  0  0  0  0  0  0  0  0  0  0  0
  -33.3859   18.8336   25.7019 C   0  0  1  0  0  0  0  0  0  0  0  0
  -33.1236   19.0564   27.1762 C   0  0  0  0  0  0  0  0  0  0  0  0
  -31.8538   19.8662   27.4075 C   0  0  1  0  0  0  0  0  0  0  0  0
  -34.2249   22.9852   16.7020 C   0  0  0  0  0  0  0  0  0  0  0  0
  -35.5052   22.7789   17.3074 C   0  0  0  0  0  0  0  0  0  0  0  0
  -36.5452   23.2598   16.9045 O   0  0  0  0  0  0  0  0  0  0  0  0
  -34.2893   23.6094   15.4819 O   0  0  0  0  0  0  0  0  0  0  0  0
  -31.8352   22.7744   16.7197 N   0  0  0  0  0  0  0  0  0  0  0  0
  -32.1813   23.6063   14.3688 C   0  0  1  0  0  0  0  0  0  0  0  0
  -31.3817   22.9013   13.5258 F   0  0  0  0  0  0  0  0  0  0  0  0
  -32.2740   24.8035   13.7312 F   0  0  0  0  0  0  0  0  0  0  0  0
  -35.4964   22.0288   18.4636 N   0  0  0  0  0  0  0  0  0  0  0  0
  -36.7744   21.7954   19.1196 C   0  0  0  0  0  0  0  0  0  0  0  0
  -34.3284   21.5047   19.0295 C   0  0  0  0  0  0  0  0  0  0  0  0
  -34.3935   20.7629   20.2018 C   0  0  0  0  0  0  0  0  0  0  0  0
  -33.2468   20.2397   20.7651 C   0  0  0  0  0  0  0  0  0  0  0  0
  -32.0157   20.4515   20.1705 C   0  0  0  0  0  0  0  0  0  0  0  0
  -31.9356   21.1900   18.9969 C   0  0  0  0  0  0  0  0  0  0  0  0
  -33.0842   21.7244   18.4150 C   0  0  0  0  0  0  0  0  0  0  0  0
  -30.8688   19.9415   20.7977 N   0  0  0  0  0  0  0  0  0  0  0  0
  -30.5241   20.0903   22.0986 C   0  0  0  0  0  0  0  0  0  0  0  0
  -29.1924   19.9698   22.5189 C   0  0  0  0  0  0  0  0  0  0  0  0
  -27.9407   19.5788   21.3876 Cl  0  0  0  0  0  0  0  0  0  0  0  0
  -28.9266   20.1465   23.8657 C   0  0  0  0  0  0  0  0  0  0  0  0
  -29.8802   20.4265   24.7530 N   0  0  0  0  0  0  0  0  0  0  0  0
  -31.1193   20.5249   24.2633 C   0  0  0  0  0  0  0  0  0  0  0  0
  -31.4834   20.3681   22.9825 N   0  0  0  0  0  0  0  0  0  0  0  0
  -32.1073   20.8040   25.1384 N   0  0  0  0  0  0  0  0  0  0  0  0
  -31.8862   21.1199   26.5483 C   0  0  0  0  0  0  0  0  0  0  0  0
  -31.6868   20.2176   28.8782 C   0  0  0  0  0  0  0  0  0  0  0  0
  -34.6146   18.1442   25.5198 O   0  0  0  0  0  0  0  0  0  0  0  0
  2  3  1  0
  3  4  1  6
  4  5  1  0
  3  5  1  0
  7  8  1  0
  8  9  1  0
  9 10  1  0
  6 11  2  0
 11 12  1  0
 12 13  2  0
 11 14  1  0
  1 14  1  0
  6 15  1  0
  2 15  1  1
  2 16  1  0
  1 16  1  0
 16 17  1  6
 16 18  1  0
 12 19  1  0
 19 20  1  0
 19 21  1  0
 21 22  2  0
 22 23  1  0
 23 24  2  0
 24 25  1  0
 25 26  2  0
 21 26  1  0
  6 26  1  0
 24 27  1  0
 27 28  1  0
 28 29  2  0
 29 30  1  0
 29 31  1  0
 31 32  2  0
 32 33  1  0
 33 34  2  0
 28 34  1  0
 33 35  1  0
  7 35  1  0
 10 36  1  0
 35 36  1  0
 10 37  1  1
  8 38  1  1
M  END
