7AKL_RK5_A_501
     RDKit          3D

 34 36  0  0  0  0  0  0  0  0999 V2000
   -0.2554    3.5259    3.7333 C   0  0  0  0  0  0  0  0  0  0  0  0
   -0.0821    2.6595    2.5294 C   0  0  0  0  0  0  0  0  0  0  0  0
   -0.3582    1.2949    2.4538 C   0  0  0  0  0  0  0  0  0  0  0  0
   -0.9550    0.4219    3.5133 C   0  0  0  0  0  0  0  0  0  0  0  0
   -0.0688    0.9502    1.1505 C   0  0  0  0  0  0  0  0  0  0  0  0
   -0.1706   -0.2627    0.4707 C   0  0  0  0  0  0  0  0  0  0  0  0
    0.2142   -0.3006   -0.8911 C   0  0  0  0  0  0  0  0  0  0  0  0
    0.6833    0.8875   -1.5157 C   0  0  0  0  0  0  0  0  0  0  0  0
    0.7662    2.0949   -0.7995 C   0  0  0  0  0  0  0  0  0  0  0  0
    0.3782    2.0894    0.5358 C   0  0  0  0  0  0  0  0  0  0  0  0
    0.3663    3.1028    1.3686 O   0  0  0  0  0  0  0  0  0  0  0  0
    0.1275   -1.5688   -1.6588 C   0  0  0  0  0  0  0  0  0  0  0  0
    1.1383   -1.9260   -2.5670 C   0  0  0  0  0  0  0  0  0  0  0  0
    1.0394   -3.1265   -3.2808 C   0  0  0  0  0  0  0  0  0  0  0  0
    2.0606   -3.5057   -4.2038 N   0  0  0  0  0  0  0  0  0  0  0  0
   -0.0341   -3.9394   -3.0921 N   0  0  0  0  0  0  0  0  0  0  0  0
   -1.0307   -3.6256   -2.2221 C   0  0  0  0  0  0  0  0  0  0  0  0
   -2.1381   -4.5130   -2.0646 N   0  0  0  0  0  0  0  0  0  0  0  0
   -0.9665   -2.4341   -1.4895 C   0  0  0  0  0  0  0  0  0  0  0  0
    0.4404    3.1970    4.5329 H   0  0  0  0  0  0  0  0  0  0  0  0
   -1.3006    3.4542    4.1001 H   0  0  0  0  0  0  0  0  0  0  0  0
   -0.0357    4.5829    3.4749 H   0  0  0  0  0  0  0  0  0  0  0  0
   -2.0580    0.3991    3.3946 H   0  0  0  0  0  0  0  0  0  0  0  0
   -0.7042    0.8109    4.5219 H   0  0  0  0  0  0  0  0  0  0  0  0
   -0.5558   -0.6101    3.4275 H   0  0  0  0  0  0  0  0  0  0  0  0
   -0.5182   -1.1500    0.9842 H   0  0  0  0  0  0  0  0  0  0  0  0
    0.9652    0.8841   -2.5609 H   0  0  0  0  0  0  0  0  0  0  0  0
    1.1142    3.0026   -1.2750 H   0  0  0  0  0  0  0  0  0  0  0  0
    2.0036   -1.2899   -2.7070 H   0  0  0  0  0  0  0  0  0  0  0  0
    2.8940   -2.8967   -4.3637 H   0  0  0  0  0  0  0  0  0  0  0  0
    1.9841   -4.4024   -4.7331 H   0  0  0  0  0  0  0  0  0  0  0  0
   -2.1831   -5.4000   -2.6137 H   0  0  0  0  0  0  0  0  0  0  0  0
   -2.9147   -4.2914   -1.4023 H   0  0  0  0  0  0  0  0  0  0  0  0
   -1.7708   -2.1796   -0.8102 H   0  0  0  0  0  0  0  0  0  0  0  0
  1  2  1  0
  2  3  2  0
  3  4  1  0
  3  5  1  0
  5  6  2  0
  6  7  1  0
  7  8  2  0
  8  9  1  0
  5 10  1  0
  9 10  2  0
  2 11  1  0
 10 11  1  0
  7 12  1  0
 12 13  2  0
 13 14  1  0
 14 15  1  0
 14 16  2  0
 16 17  1  0
 17 18  1  0
 17 19  2  0
 12 19  1  0
  1 20  1  0
  1 21  1  0
  1 22  1  0
  4 23  1  0
  4 24  1  0
  4 25  1  0
  6 26  1  0
  8 27  1  0
  9 28  1  0
 13 29  1  0
 15 30  1  0
 15 31  1  0
 18 32  1  0
 18 33  1  0
 19 34  1  0
M  END
