7ES1_UDP_A_501
     RDKit          3D

 39 40  0  0  0  0  0  0  0  0999 V2000
   -1.1238    1.8507    0.8275 N   0  0  0  0  0  0  0  0  0  0  0  0
   -1.6925    2.9382    1.4450 C   0  0  0  0  0  0  0  0  0  0  0  0
   -3.0041    3.2404    1.2348 N   0  0  0  0  0  0  0  0  0  0  0  0
   -3.7813    2.4723    0.4276 C   0  0  0  0  0  0  0  0  0  0  0  0
   -3.2379    1.3545   -0.1953 C   0  0  0  0  0  0  0  0  0  0  0  0
   -1.8971    1.0537    0.0261 C   0  0  0  0  0  0  0  0  0  0  0  0
   -1.0101    3.6704    2.2131 O   0  0  0  0  0  0  0  0  0  0  0  0
   -4.9923    2.7686    0.2455 O   0  0  0  0  0  0  0  0  0  0  0  0
    0.2890    1.4941    1.0749 C   0  0  1  0  0  0  0  0  0  0  0  0
    0.4006    0.4646    2.1960 C   0  0  2  0  0  0  0  0  0  0  0  0
    0.4421    1.0362    3.4834 O   0  0  0  0  0  0  0  0  0  0  0  0
    1.6547   -0.2911    1.8318 C   0  0  1  0  0  0  0  0  0  0  0  0
    1.6907   -0.1440    0.3035 C   0  0  2  0  0  0  0  0  0  0  0  0
    0.8807    0.9500   -0.0864 O   0  0  0  0  0  0  0  0  0  0  0  0
    2.7880    0.3135    2.4018 O   0  0  0  0  0  0  0  0  0  0  0  0
    1.1920   -1.4149   -0.3940 C   0  0  0  0  0  0  0  0  0  0  0  0
    1.2063   -1.2129   -1.7879 O   0  0  0  0  0  0  0  0  0  0  0  0
    0.4929   -2.5700   -2.5323 P   0  0  2  0  0  5  0  0  0  0  0  0
    0.6225   -2.4125   -4.0308 O   0  0  0  0  0  0  0  0  0  0  0  0
   -1.1490   -2.6294   -2.1168 O   0  0  0  0  0  0  0  0  0  0  0  0
    1.3094   -3.9796   -2.0326 O   0  0  0  0  0  0  0  0  0  0  0  0
    0.3905   -5.3180   -2.5425 P   0  0  0  0  0  5  0  0  0  0  0  0
    1.1891   -6.5761   -2.2880 O   0  0  0  0  0  0  0  0  0  0  0  0
    0.0383   -5.2180   -4.1966 O   0  0  0  0  0  0  0  0  0  0  0  0
   -1.0509   -5.4022   -1.6585 O   0  0  0  0  0  0  0  0  0  0  0  0
   -3.4222    4.0746    1.7067 H   0  0  0  0  0  0  0  0  0  0  0  0
   -3.8429    0.7221   -0.8328 H   0  0  0  0  0  0  0  0  0  0  0  0
   -1.4828    0.1734   -0.4479 H   0  0  0  0  0  0  0  0  0  0  0  0
    0.8780    2.4043    1.3284 H   0  0  0  0  0  0  0  0  0  0  0  0
   -0.4620   -0.2376    2.1485 H   0  0  0  0  0  0  0  0  0  0  0  0
    1.1116    1.7683    3.4859 H   0  0  0  0  0  0  0  0  0  0  0  0
    1.5775   -1.3519    2.1694 H   0  0  0  0  0  0  0  0  0  0  0  0
    2.7325    0.0475   -0.0376 H   0  0  0  0  0  0  0  0  0  0  0  0
    3.5355   -0.3311    2.2942 H   0  0  0  0  0  0  0  0  0  0  0  0
    1.8706   -2.2551   -0.1226 H   0  0  0  0  0  0  0  0  0  0  0  0
    0.1629   -1.6369   -0.0286 H   0  0  0  0  0  0  0  0  0  0  0  0
   -1.4992   -1.7308   -2.3421 H   0  0  0  0  0  0  0  0  0  0  0  0
    0.9215   -5.2249   -4.6438 H   0  0  0  0  0  0  0  0  0  0  0  0
   -1.5704   -6.1258   -2.0907 H   0  0  0  0  0  0  0  0  0  0  0  0
  1  2  1  0
  2  3  1  0
  3  4  1  0
  4  5  1  0
  1  6  1  0
  5  6  2  0
  2  7  2  0
  4  8  2  0
  9  1  1  0
  9 10  1  0
 10 11  1  0
 10 12  1  0
 12 13  1  0
  9 14  1  0
 13 14  1  0
 12 15  1  0
 13 16  1  0
 16 17  1  0
 18 17  1  1
 18 19  2  0
 18 20  1  0
 18 21  1  0
 21 22  1  0
 22 23  2  0
 22 24  1  0
 22 25  1  0
  3 26  1  0
  5 27  1  0
  6 28  1  0
  9 29  1  1
 10 30  1  1
 11 31  1  0
 12 32  1  6
 13 33  1  6
 15 34  1  0
 16 35  1  0
 16 36  1  0
 20 37  1  0
 24 38  1  0
 25 39  1  0
M  END
