6Z5Z_BDF_A_103
     RDKit          3D

 24 24  0  0  0  0  0  0  0  0999 V2000
    0.3506    2.3786   -0.2219 C   0  0  0  0  0  0  0  0  0  0  0  0
   -0.1385    1.0875    0.4692 C   0  0  1  0  0  0  0  0  0  0  0  0
    0.8185   -0.1164    0.1412 C   0  0  2  0  0  0  0  0  0  0  0  0
    0.0314   -1.4431    0.1664 C   0  0  1  0  0  0  0  0  0  0  0  0
   -1.1465   -1.3866   -0.8393 C   0  0  1  0  0  0  0  0  0  0  0  0
   -1.6004    0.0639   -1.0908 C   0  0  0  0  0  0  0  0  0  0  0  0
    1.5977    2.7790    0.2831 O   0  0  0  0  0  0  0  0  0  0  0  0
   -0.1268    1.3310    1.8553 O   0  0  0  0  0  0  0  0  0  0  0  0
    1.9290   -0.1502    1.0071 O   0  0  0  0  0  0  0  0  0  0  0  0
    0.8815   -2.5219   -0.1348 O   0  0  0  0  0  0  0  0  0  0  0  0
   -0.7860   -1.9611   -2.0710 O   0  0  0  0  0  0  0  0  0  0  0  0
   -1.4954    0.8445    0.0849 O   0  0  0  0  0  0  0  0  0  0  0  0
   -0.3798    3.1916   -0.0214 H   0  0  0  0  0  0  0  0  0  0  0  0
    0.3980    2.2532   -1.3276 H   0  0  0  0  0  0  0  0  0  0  0  0
    1.2163    0.0027   -0.8918 H   0  0  0  0  0  0  0  0  0  0  0  0
   -0.4013   -1.5841    1.1858 H   0  0  0  0  0  0  0  0  0  0  0  0
   -2.0088   -1.9442   -0.4011 H   0  0  0  0  0  0  0  0  0  0  0  0
   -1.0223    0.5221   -1.9240 H   0  0  0  0  0  0  0  0  0  0  0  0
   -2.6624    0.0564   -1.4157 H   0  0  0  0  0  0  0  0  0  0  0  0
    2.2899    2.3201   -0.2604 H   0  0  0  0  0  0  0  0  0  0  0  0
   -0.6180    0.5871    2.2925 H   0  0  0  0  0  0  0  0  0  0  0  0
    1.6190   -0.4674    1.8950 H   0  0  0  0  0  0  0  0  0  0  0  0
    1.3674   -2.7517    0.6998 H   0  0  0  0  0  0  0  0  0  0  0  0
   -0.9301   -2.9402   -1.9885 H   0  0  0  0  0  0  0  0  0  0  0  0
  1  2  1  0
  2  3  1  0
  3  4  1  0
  4  5  1  0
  5  6  1  0
  1  7  1  0
  2  8  1  1
  3  9  1  0
  4 10  1  0
  5 11  1  0
  2 12  1  0
  6 12  1  0
  1 13  1  0
  1 14  1  0
  3 15  1  6
  4 16  1  1
  5 17  1  1
  6 18  1  0
  6 19  1  0
  7 20  1  0
  8 21  1  0
  9 22  1  0
 10 23  1  0
 11 24  1  0
M  END
