6Z5Z_BDF_A_102
     RDKit          3D

 24 24  0  0  0  0  0  0  0  0999 V2000
    4.7155    5.0190  -18.9991 C   0  0  0  0  0  0  0  0  0  0  0  0
    4.7252    4.9867  -20.5196 C   0  0  2  0  0  0  0  0  0  0  0  0
    5.7180    3.9484  -21.0624 C   0  0  1  0  0  0  0  0  0  0  0  0
    5.5621    3.8000  -22.5752 C   0  0  2  0  0  0  0  0  0  0  0  0
    4.1163    3.4732  -22.9201 C   0  0  2  0  0  0  0  0  0  0  0  0
    3.2212    4.5411  -22.3400 C   0  0  0  0  0  0  0  0  0  0  0  0
    3.3968    5.1894  -18.4934 O   0  0  0  0  0  0  0  0  0  0  0  0
    5.0578    6.2375  -21.0581 O   0  0  0  0  0  0  0  0  0  0  0  0
    7.0551    4.3319  -20.7500 O   0  0  0  0  0  0  0  0  0  0  0  0
    6.4610    2.8116  -23.0654 O   0  0  0  0  0  0  0  0  0  0  0  0
    3.6996    2.2167  -22.3611 O   0  0  0  0  0  0  0  0  0  0  0  0
    3.4024    4.6328  -20.9126 O   0  0  0  0  0  0  0  0  0  0  0  0
    5.1144    4.0978  -18.6286 H   0  0  0  0  0  0  0  0  0  0  0  0
    5.3106    5.8471  -18.6755 H   0  0  0  0  0  0  0  0  0  0  0  0
    5.5078    3.0072  -20.5990 H   0  0  0  0  0  0  0  0  0  0  0  0
    5.8087    4.7253  -23.0525 H   0  0  0  0  0  0  0  0  0  0  0  0
    4.0447    3.4221  -23.9865 H   0  0  0  0  0  0  0  0  0  0  0  0
    3.4623    5.4831  -22.7866 H   0  0  0  0  0  0  0  0  0  0  0  0
    2.2021    4.2860  -22.5433 H   0  0  0  0  0  0  0  0  0  0  0  0
    2.8428    4.4458  -18.7780 H   0  0  0  0  0  0  0  0  0  0  0  0
    5.9587    6.4761  -20.7892 H   0  0  0  0  0  0  0  0  0  0  0  0
    7.2527    5.1851  -21.1671 H   0  0  0  0  0  0  0  0  0  0  0  0
    6.2617    1.9584  -22.6492 H   0  0  0  0  0  0  0  0  0  0  0  0
    3.7622    2.2565  -21.3940 H   0  0  0  0  0  0  0  0  0  0  0  0
  1  2  1  0
  2  3  1  0
  3  4  1  0
  4  5  1  0
  5  6  1  0
  1  7  1  0
  2  8  1  1
  3  9  1  0
  4 10  1  0
  5 11  1  0
  2 12  1  0
  6 12  1  0
  1 13  1  0
  1 14  1  0
  3 15  1  6
  4 16  1  1
  5 17  1  1
  6 18  1  0
  6 19  1  0
  7 20  1  0
  8 21  1  0
  9 22  1  0
 10 23  1  0
 11 24  1  0
M  END
