7UMW_NAD_B_301
     RDKit          3D

 44 48  0  0  0  0  0  0  0  0999 V2000
  -23.3314   25.4358   -6.4904 P   0  0  1  0  0  5  0  0  0  0  0  0
  -21.8746   25.3805   -6.0417 O   0  0  0  0  0  0  0  0  0  0  0  0
  -24.2361   25.9460   -5.1335 O   0  0  0  0  0  0  0  0  0  0  0  0
  -23.5332   26.5904   -7.7088 O   0  0  0  0  0  0  0  0  0  0  0  0
  -22.4036   26.5916   -8.4879 C   0  0  0  0  0  0  0  0  0  0  0  0
  -21.4197   27.6705   -8.1188 C   0  0  1  0  0  0  0  0  0  0  0  0
  -21.9884   28.9548   -8.2864 O   0  0  0  0  0  0  0  0  0  0  0  0
  -21.0340   27.7007   -6.6777 C   0  0  1  0  0  0  0  0  0  0  0  0
  -20.0417   26.8148   -6.3168 O   0  0  0  0  0  0  0  0  0  0  0  0
  -20.5865   29.1565   -6.4942 C   0  0  1  0  0  0  0  0  0  0  0  0
  -19.1781   29.1070   -6.3835 O   0  0  0  0  0  0  0  0  0  0  0  0
  -20.9361   29.7460   -7.8204 C   0  0  2  0  0  0  0  0  0  0  0  0
  -21.3114   31.1415   -7.7387 N   0  0  0  0  0  0  0  0  0  0  0  0
  -22.4189   31.7105   -7.2315 C   0  0  0  0  0  0  0  0  0  0  0  0
  -22.3366   33.0516   -7.3729 N   0  0  0  0  0  0  0  0  0  0  0  0
  -21.1588   33.3450   -7.9797 C   0  0  0  0  0  0  0  0  0  0  0  0
  -20.5827   34.5545   -8.3565 C   0  0  0  0  0  0  0  0  0  0  0  0
  -21.2480   35.7907   -8.1189 N   0  0  0  0  0  0  0  0  0  0  0  0
  -19.3769   34.5290   -8.9532 N   0  0  0  0  0  0  0  0  0  0  0  0
  -18.7407   33.3556   -9.1811 C   0  0  0  0  0  0  0  0  0  0  0  0
  -19.3215   32.1952   -8.8056 N   0  0  0  0  0  0  0  0  0  0  0  0
  -20.5262   32.1319   -8.2028 C   0  0  0  0  0  0  0  0  0  0  0  0
  -23.8286   23.9281   -7.0251 O   0  0  0  0  0  0  0  0  0  0  0  0
  -24.9402   23.9693   -8.2690 P   0  0  2  0  0  5  0  0  0  0  0  0
  -26.3271   24.3921   -7.7771 O   0  0  0  0  0  0  0  0  0  0  0  0
  -25.0266   22.5093   -9.1295 O   0  0  0  0  0  0  0  0  0  0  0  0
  -24.4832   25.1682   -9.3709 O   0  0  0  0  0  0  0  0  0  0  0  0
  -25.4684   26.1076   -9.5507 C   0  0  0  0  0  0  0  0  0  0  0  0
  -26.0029   25.9081  -10.9628 C   0  0  1  0  0  0  0  0  0  0  0  0
  -26.4943   24.6379  -11.0590 O   0  0  0  0  0  0  0  0  0  0  0  0
  -27.0754   26.8985  -11.2833 C   0  0  1  0  0  0  0  0  0  0  0  0
  -26.9591   27.3895  -12.5805 O   0  0  0  0  0  0  0  0  0  0  0  0
  -28.3302   26.0707  -11.1049 C   0  0  1  0  0  0  0  0  0  0  0  0
  -29.3426   26.4857  -11.9788 O   0  0  0  0  0  0  0  0  0  0  0  0
  -27.8172   24.6973  -11.4591 C   0  0  2  0  0  0  0  0  0  0  0  0
  -28.6372   23.6234  -10.9602 N   0  0  0  0  0  0  0  0  0  0  0  0
  -29.4852   22.9404  -11.7697 C   0  0  0  0  0  0  0  0  0  0  0  0
  -30.2786   21.9092  -11.3116 C   0  0  0  0  0  0  0  0  0  0  0  0
  -31.1464   21.2555  -12.2800 C   0  0  0  0  0  0  0  0  0  0  0  0
  -31.8653   20.2979  -11.8880 O   0  0  0  0  0  0  0  0  0  0  0  0
  -31.2245   21.6422  -13.6466 N   0  0  0  0  0  0  0  0  0  0  0  0
  -30.2451   21.5199   -9.9891 C   0  0  0  0  0  0  0  0  0  0  0  0
  -29.3793   22.2176   -9.1636 C   0  0  0  0  0  0  0  0  0  0  0  0
  -28.6034   23.2427   -9.6632 C   0  0  0  0  0  0  0  0  0  0  0  0
  1  2  2  0
  1  3  1  1
  1  4  1  0
  5  4  1  6
  6  5  1  0
  6  7  1  1
  6  8  1  0
  8  9  1  6
  8 10  1  0
 10 11  1  6
  7 12  1  0
 10 12  1  0
 12 13  1  1
 13 14  1  0
 14 15  2  0
 15 16  1  0
 16 17  2  0
 17 18  1  0
 17 19  1  0
 19 20  2  0
 20 21  1  0
 13 22  1  0
 16 22  1  0
 21 22  2  0
  1 23  1  0
 23 24  1  0
 24 25  2  0
 24 26  1  6
 24 27  1  0
 28 27  1  1
 29 28  1  0
 29 30  1  1
 29 31  1  0
 31 32  1  6
 31 33  1  0
 33 34  1  6
 30 35  1  0
 33 35  1  0
 35 36  1  1
 36 37  2  0
 37 38  1  0
 38 39  1  0
 39 40  2  0
 39 41  1  0
 38 42  2  0
 42 43  1  0
 36 44  1  0
 43 44  2  0
M  CHG  2  26  -1  36   1
M  END
$$$$
