7ZZB_KGX_A_302
     RDKit          3D

 87 92  0  0  0  0  0  0  0  0999 V2000
    1.7581    4.7337   -1.3623 N   0  0  0  0  0  0  0  0  0  0  0  0
    3.0203    2.4998   -3.6734 C   0  0  2  0  0  0  0  0  0  0  0  0
    0.7834    6.1127   -3.8537 C   0  0  0  0  0  0  0  0  0  0  0  0
    3.5748    5.7914   -2.6718 N   0  0  0  0  0  0  0  0  0  0  0  0
    1.6759    6.1391   -2.7242 C   0  0  0  0  0  0  0  0  0  0  0  0
    3.0967    4.5612   -4.9072 O   0  0  0  0  0  0  0  0  0  0  0  0
    2.3763    3.4143   -1.4855 C   0  0  0  0  0  0  0  0  0  0  0  0
    6.1433    3.6735    2.7952 O   0  0  0  0  0  0  0  0  0  0  0  0
    1.7762    4.0576   -5.0008 C   0  0  1  0  0  0  0  0  0  0  0  0
    1.6052    2.9482   -3.9513 C   0  0  1  0  0  0  0  0  0  0  0  0
    0.8065    5.1607   -4.8365 N   0  0  0  0  0  4  0  0  0  0  0  0
    3.8495    3.7335   -4.0432 C   0  0  1  0  0  0  0  0  0  0  0  0
    5.2315    5.7780    0.0783 O   0  0  0  0  0  0  0  0  0  0  0  0
    4.3174    4.5383   -2.8137 C   0  0  0  0  0  0  0  0  0  0  0  0
    0.7619    1.8987   -4.3669 O   0  0  0  0  0  0  0  0  0  0  0  0
    2.2650    5.8556   -2.0951 C   0  0  0  0  0  0  0  0  0  0  0  0
    2.6781    5.3120    0.4840 N   0  0  0  0  0  0  0  0  0  0  0  0
    3.6976    3.6731   -3.5449 N   0  0  0  0  0  0  0  0  0  0  0  0
    2.5403    3.0084   -2.9510 C   0  0  0  0  0  0  0  0  0  0  0  0
    1.5730    6.9041   -2.2072 O   0  0  0  0  0  0  0  0  0  0  0  0
    2.4185    6.1366   -1.7754 C   0  0  0  0  0  0  0  0  0  0  0  0
    3.3128    6.0737   -0.6104 C   0  0  0  0  0  0  0  0  0  0  0  0
    3.5014    5.3464    1.7235 C   0  0  0  0  0  0  0  0  0  0  0  0
    5.0029    5.2946    1.3862 C   0  0  1  0  0  0  0  0  0  0  0  0
    6.0939    4.8731   -0.5764 C   0  0  1  0  0  0  0  0  0  0  0  0
    6.6627    3.8880    0.4523 C   0  0  2  0  0  0  0  0  0  0  0  0
    5.5977    3.8921    1.5162 C   0  0  1  0  0  0  0  0  0  0  0  0
    5.8291    3.6073   -2.7982 C   0  0  0  0  0  0  0  0  0  0  0  0
    3.7319    3.3565   -2.8779 C   0  0  0  0  0  0  0  0  0  0  0  0
    4.0394    4.0073   -1.7340 C   0  0  0  0  0  0  0  0  0  0  0  0
    1.7897    4.0971   -1.1132 C   0  0  0  0  0  0  0  0  0  0  0  0
    2.4058    3.0749   -3.1821 C   0  0  0  0  0  0  0  0  0  0  0  0
    2.3840    3.9203    0.0653 C   0  0  0  0  0  0  0  0  0  0  0  0
    2.6043    3.7712   -1.4083 C   0  0  0  0  0  0  0  0  0  0  0  0
   -0.7027    6.7329   -5.2177 C   0  0  0  0  0  0  0  0  0  0  0  0
   -0.1293    5.6050   -5.6979 C   0  0  0  0  0  0  0  0  0  0  0  0
   -1.4453    5.7067   -7.6282 C   0  0  0  0  0  0  0  0  0  0  0  0
   -1.6907    7.3823   -5.9495 C   0  0  0  0  0  0  0  0  0  0  0  0
   -0.1414    7.0888   -4.0505 N   0  0  0  0  0  0  0  0  0  0  0  0
   -0.4699    5.0823   -6.9020 N   0  0  0  0  0  0  0  0  0  0  0  0
   -2.0465    6.8423   -7.1524 N   0  0  0  0  0  0  0  0  0  0  0  0
   -2.3153    8.5753   -5.4776 N   0  0  0  0  0  0  0  0  0  0  0  0
    5.3616    4.2070   -1.6660 N   0  0  0  0  0  4  0  0  0  0  0  0
    4.8461    3.0863   -3.5817 N   0  0  0  0  0  0  0  0  0  0  0  0
    3.0969    4.3875   -0.8352 N   0  0  0  0  0  0  0  0  0  0  0  0
    1.4532    3.4523   -2.2774 N   0  0  0  0  0  0  0  0  0  0  0  0
    2.0343    2.4503   -4.4100 N   0  0  0  0  0  0  0  0  0  0  0  0
    3.3907    1.3828   -4.4470 O   0  0  0  0  0  0  0  0  0  0  0  0
    7.8717    4.3818    0.9727 O   0  0  0  0  0  0  0  0  0  0  0  0
    3.8324    4.1195   -1.9645 O   0  0  0  0  0  0  0  0  0  0  0  0
    1.6993    3.2753   -2.1366 O   0  0  0  0  0  0  0  0  0  0  0  0
    0.8859    4.8578   -0.7984 H   0  0  0  0  0  0  0  0  0  0  0  0
    3.1330    2.2229   -2.6038 H   0  0  0  0  0  0  0  0  0  0  0  0
    3.9454    6.6384   -3.1569 H   0  0  0  0  0  0  0  0  0  0  0  0
    3.3771    3.4368   -1.0023 H   0  0  0  0  0  0  0  0  0  0  0  0
    1.7516    2.6578   -0.9628 H   0  0  0  0  0  0  0  0  0  0  0  0
    5.3773    3.5186    3.4076 H   0  0  0  0  0  0  0  0  0  0  0  0
    1.6530    3.6399   -6.0244 H   0  0  0  0  0  0  0  0  0  0  0  0
    1.1946    3.3711   -3.0129 H   0  0  0  0  0  0  0  0  0  0  0  0
    4.7641    3.4060   -4.5852 H   0  0  0  0  0  0  0  0  0  0  0  0
    4.2368    3.9253   -1.8907 H   0  0  0  0  0  0  0  0  0  0  0  0
    5.3941    4.7831   -2.9314 H   0  0  0  0  0  0  0  0  0  0  0  0
    1.0231    1.6196   -5.2826 H   0  0  0  0  0  0  0  0  0  0  0  0
    3.5088    4.7011   -3.5592 H   0  0  0  0  0  0  0  0  0  0  0  0
    3.7606    3.3685   -4.5445 H   0  0  0  0  0  0  0  0  0  0  0  0
    1.6204    3.2863   -3.5112 H   0  0  0  0  0  0  0  0  0  0  0  0
    2.6707    1.9084   -3.0230 H   0  0  0  0  0  0  0  0  0  0  0  0
    4.2801    5.6095   -0.9065 H   0  0  0  0  0  0  0  0  0  0  0  0
    3.5140    7.1206   -0.2945 H   0  0  0  0  0  0  0  0  0  0  0  0
    3.2435    4.5226    2.4294 H   0  0  0  0  0  0  0  0  0  0  0  0
    3.3311    6.2756    2.3120 H   0  0  0  0  0  0  0  0  0  0  0  0
    5.5407    5.9687    2.0931 H   0  0  0  0  0  0  0  0  0  0  0  0
    6.9324    5.4524   -1.0241 H   0  0  0  0  0  0  0  0  0  0  0  0
    6.8174    2.8631    0.0478 H   0  0  0  0  0  0  0  0  0  0  0  0
    4.8437    3.1079    1.2803 H   0  0  0  0  0  0  0  0  0  0  0  0
    6.8729    3.5514   -3.0693 H   0  0  0  0  0  0  0  0  0  0  0  0
    1.0152    4.3835   -0.4138 H   0  0  0  0  0  0  0  0  0  0  0  0
    3.0591    3.1975    0.5730 H   0  0  0  0  0  0  0  0  0  0  0  0
    1.3426    3.6218    0.3347 H   0  0  0  0  0  0  0  0  0  0  0  0
   -1.7449    5.3064   -8.5872 H   0  0  0  0  0  0  0  0  0  0  0  0
   -3.0541    9.0423   -6.0478 H   0  0  0  0  0  0  0  0  0  0  0  0
   -2.0487    8.9977   -4.5618 H   0  0  0  0  0  0  0  0  0  0  0  0
    1.0289    2.2936   -4.6366 H   0  0  0  0  0  0  0  0  0  0  0  0
    2.7517    2.1919   -5.1214 H   0  0  0  0  0  0  0  0  0  0  0  0
    3.3638    1.6426   -5.4046 H   0  0  0  0  0  0  0  0  0  0  0  0
    8.5744    4.1630    0.3072 H   0  0  0  0  0  0  0  0  0  0  0  0
    4.0056    3.9917   -2.9539 H   0  0  0  0  0  0  0  0  0  0  0  0
  3  5  1  0
  1  7  1  0
  6  9  1  0
  9 10  1  0
  2 10  1  0
  3 11  4  0
  9 11  1  0
  6 12  1  0
  2 12  1  0
  4 14  1  0
 12 14  1  0
 10 15  1  0
  1 16  1  0
  4 16  1  0
 18 19  1  0
  7 19  1  0
 16 20  2  0
  5 21  3  0
 17 22  1  0
 21 22  1  0
 17 23  1  0
 13 24  1  0
 24 23  1  0
 13 25  1  0
 25 26  1  0
 26 27  1  0
 27  8  1  0
 24 27  1  0
 29 30  4  0
 29 32  4  0
 17 33  1  0
 33 34  1  0
 35 36  4  0
 11 36  4  0
 35 38  4  0
 35 39  4  0
  3 39  4  0
 37 40  4  0
 36 40  4  0
 38 41  4  0
 37 41  4  0
 38 42  1  0
 28 43  4  0
 30 43  4  0
 25 43  1  0
 29 44  4  0
 28 44  4  0
 30 45  4  0
 31 45  4  0
 32 46  4  0
 31 46  4  0
 32 47  1  0
  2 48  1  0
 26 49  1  0
 34 50  1  0
 34 51  2  0
  1 52  1  0
  2 53  1  6
  4 54  1  0
  7 55  1  0
  7 56  1  0
  8 57  1  0
  9 58  1  1
 10 59  1  6
 12 60  1  1
 14 61  1  0
 14 62  1  0
 15 63  1  0
 18 64  1  0
 18 65  1  0
 19 66  1  0
 19 67  1  0
 22 68  1  0
 22 69  1  0
 23 70  1  0
 23 71  1  0
 24 72  1  6
 25 73  1  1
 26 74  1  1
 27 75  1  1
 28 76  1  0
 31 77  1  0
 33 78  1  0
 33 79  1  0
 37 80  1  0
 42 81  1  0
 42 82  1  0
 47 83  1  0
 47 84  1  0
 48 85  1  0
 49 86  1  0
 50 87  1  0
M  CHG  2  11   1  43   1
M  END
