7LEV_0JO_B_406
     RDKit          3D

 34 34  0  0  0  0  0  0  0  0999 V2000
   -0.8879    2.4592    4.1659 O   0  0  0  0  0  0  0  0  0  0  0  0
   -0.8429    1.7022    3.1581 C   0  0  0  0  0  0  0  0  0  0  0  0
   -0.7127    0.3287    3.3432 O   0  0  0  0  0  0  0  0  0  0  0  0
   -0.9613    2.2635    1.7900 C   0  0  0  0  0  0  0  0  0  0  0  0
   -1.5115    3.4642    1.6009 C   0  0  0  0  0  0  0  0  0  0  0  0
   -0.5685    1.5110    0.6319 N   0  0  0  0  0  0  0  0  0  0  0  0
    0.3707    0.6152    0.6113 C   0  0  0  0  0  0  0  0  0  0  0  0
    0.6872   -0.1183   -0.6339 C   0  0  0  0  0  0  0  0  0  0  0  0
    2.0378   -0.2786   -1.0252 C   0  0  0  0  0  0  0  0  0  0  0  0
    3.0917    0.2916   -0.3026 O   0  0  0  0  0  0  0  0  0  0  0  0
    2.3364   -1.0122   -2.1843 C   0  0  0  0  0  0  0  0  0  0  0  0
    3.7544   -1.1988   -2.6305 C   0  0  0  0  0  0  0  0  0  0  0  0
    1.3335   -1.5442   -2.9280 N   0  0  0  0  0  0  0  0  0  0  0  0
    0.0296   -1.4071   -2.5851 C   0  0  0  0  0  0  0  0  0  0  0  0
   -0.3347   -0.7063   -1.4260 C   0  0  0  0  0  0  0  0  0  0  0  0
   -1.8030   -0.6410   -1.0540 C   0  0  0  0  0  0  0  0  0  0  0  0
   -2.0241   -1.0842    0.2686 O   0  0  0  0  0  0  0  0  0  0  0  0
   -2.1279   -2.7884    0.2926 P   0  0  0  0  0  5  0  0  0  0  0  0
   -2.4082   -3.2368    1.7089 O   0  0  0  0  0  0  0  0  0  0  0  0
   -0.6660   -3.4702   -0.2226 O   0  0  0  0  0  0  0  0  0  0  0  0
   -3.3887   -3.3087   -0.7116 O   0  0  0  0  0  0  0  0  0  0  0  0
   -0.6410   -0.0669    4.2730 H   0  0  0  0  0  0  0  0  0  0  0  0
   -1.8603    4.0657    2.4310 H   0  0  0  0  0  0  0  0  0  0  0  0
   -1.6242    3.8628    0.6003 H   0  0  0  0  0  0  0  0  0  0  0  0
    0.9807    0.4427    1.4886 H   0  0  0  0  0  0  0  0  0  0  0  0
    2.9593    0.8957    0.4977 H   0  0  0  0  0  0  0  0  0  0  0  0
    3.7981   -1.8373   -3.5384 H   0  0  0  0  0  0  0  0  0  0  0  0
    4.2061   -0.2127   -2.8677 H   0  0  0  0  0  0  0  0  0  0  0  0
    4.3418   -1.6890   -1.8257 H   0  0  0  0  0  0  0  0  0  0  0  0
   -0.7247   -1.8647   -3.2121 H   0  0  0  0  0  0  0  0  0  0  0  0
   -2.4476   -1.1740   -1.7902 H   0  0  0  0  0  0  0  0  0  0  0  0
   -2.1281    0.4173   -1.1235 H   0  0  0  0  0  0  0  0  0  0  0  0
   -0.8210   -4.4481   -0.2056 H   0  0  0  0  0  0  0  0  0  0  0  0
   -3.3680   -4.2972   -0.6545 H   0  0  0  0  0  0  0  0  0  0  0  0
  1  2  2  0
  2  3  1  0
  2  4  1  0
  4  5  2  0
  4  6  1  0
  6  7  2  0
  7  8  1  0
  8  9  2  0
  9 10  1  0
  9 11  1  0
 11 12  1  0
 11 13  2  0
 13 14  1  0
  8 15  1  0
 14 15  2  0
 15 16  1  0
 16 17  1  0
 17 18  1  0
 18 19  2  0
 18 20  1  0
 18 21  1  0
  3 22  1  0
  5 23  1  0
  5 24  1  0
  7 25  1  0
 10 26  1  0
 12 27  1  0
 12 28  1  0
 12 29  1  0
 14 30  1  0
 16 31  1  0
 16 32  1  0
 20 33  1  0
 21 34  1  0
M  END
