7O1T_5X8_A_407
     RDKit          3D

 25 27  0  0  0  0  0  0  0  0999 V2000
   -9.7000    8.2590  -25.7220 N   0  0  0  0  0  0  0  0  0  0  0  0
  -11.4460    9.6780  -26.3430 C   0  0  0  0  0  0  0  0  0  0  0  0
  -12.8530   11.3550  -26.3570 C   0  0  0  0  0  0  0  0  0  0  0  0
   -9.4130    9.0660  -24.6050 C   0  0  0  0  0  0  0  0  0  0  0  0
  -10.7120    8.5590  -26.5690 C   0  0  0  0  0  0  0  0  0  0  0  0
  -10.1940   10.2070  -24.3980 N   0  0  0  0  0  0  0  0  0  0  0  0
  -11.1790   10.4760  -25.2800 C   0  0  0  0  0  0  0  0  0  0  0  0
  -14.9350   18.9030  -24.9380 O   0  0  0  0  0  0  0  0  0  0  0  0
  -15.6000   18.0330  -25.5300 C   0  0  0  0  0  0  0  0  0  0  0  0
  -15.2890   17.5010  -26.6170 O   0  0  0  0  0  0  0  0  0  0  0  0
  -16.9150   17.5940  -24.8330 C   0  0  1  0  0  0  0  0  0  0  0  0
  -17.8180   17.0260  -25.8270 N   0  0  0  0  0  0  0  0  0  0  0  0
  -16.6520   16.5580  -23.6950 C   0  0  0  0  0  0  0  0  0  0  0  0
  -15.8560   15.0250  -24.3810 S   0  0  0  0  0  0  0  0  0  0  0  0
  -14.6400   14.7750  -23.0120 C   0  0  0  0  0  0  0  0  0  0  0  0
  -13.2050   14.2750  -23.4130 C   0  0  1  0  0  0  0  0  0  0  0  0
  -13.2320   12.8970  -23.8510 O   0  0  0  0  0  0  0  0  0  0  0  0
  -12.5480   14.9600  -24.6000 C   0  0  1  0  0  0  0  0  0  0  0  0
  -11.9640   16.2200  -24.2250 O   0  0  0  0  0  0  0  0  0  0  0  0
  -11.4630   13.9080  -24.9460 C   0  0  1  0  0  0  0  0  0  0  0  0
  -10.1360   14.2910  -24.4780 O   0  0  0  0  0  0  0  0  0  0  0  0
  -11.9280   12.5810  -24.2590 C   0  0  2  0  0  0  0  0  0  0  0  0
  -12.0240   11.4990  -25.2980 N   0  0  0  0  0  0  0  0  0  0  0  0
  -12.4920   10.2370  -26.9910 N   0  0  0  0  0  0  0  0  0  0  0  0
  -10.9930    7.7560  -27.6500 N   0  0  0  0  0  0  0  0  0  0  0  0
  1  4  2  0
  1  5  1  0
  2  5  2  0
  4  6  1  0
  6  7  2  0
  2  7  1  0
  8  9  1  0
  9 10  2  0
  9 11  1  0
 11 12  1  6
 11 13  1  0
 13 14  1  0
 14 15  1  0
 16 15  1  6
 16 17  1  0
 16 18  1  0
 18 19  1  1
 18 20  1  0
 20 21  1  1
 17 22  1  0
 20 22  1  0
 22 23  1  6
  7 23  1  0
  3 23  1  0
  2 24  1  0
  3 24  2  0
  5 25  1  0
M  END
$$$$
