7TM6_GPJ_A_502
     RDKit          3D

 10  9  0  0  0  0  0  0  0  0999 V2000
   -2.8770    1.5740   -4.3040 P   0  0  0  0  0  0  0  0  0  0  0  0
   -2.9520    1.7990   -5.7980 O   0  0  0  0  0  0  0  0  0  0  0  0
   -1.5010    1.9050   -3.7430 O   0  0  0  0  0  0  0  0  0  0  0  0
   -4.0390    2.2030   -3.5500 O   0  0  0  0  0  0  0  0  0  0  0  0
   -0.2130   -4.0480   -3.5900 O   0  0  0  0  0  0  0  0  0  0  0  0
    0.5650   -1.9990   -3.8840 O   0  0  0  0  0  0  0  0  0  0  0  0
   -3.0970   -0.2370   -3.9860 C   0  0  0  0  0  0  0  0  0  0  0  0
   -1.8160   -2.2910   -3.5890 C   0  0  0  0  0  0  0  0  0  0  0  0
   -0.3910   -2.8120   -3.6940 C   0  0  0  0  0  0  0  0  0  0  0  0
   -1.8160   -0.9260   -4.1000 N   0  0  0  0  0  0  0  0  0  0  0  0
  1  2  2  0
  1  3  1  0
  1  4  1  0
  1  7  1  0
  5  9  1  0
  6  9  2  0
  8  9  1  0
  7 10  1  0
  8 10  1  0
M  CHG  1  10   1
M  END
$$$$
