7TM6_GPJ_A_502
     RDKit          3D

 19 18  0  0  0  0  0  0  0  0999 V2000
   -0.8991   -1.7679   -0.4833 P   0  0  0  0  0  5  0  0  0  0  0  0
   -2.1547   -0.9986   -0.8248 O   0  0  0  0  0  0  0  0  0  0  0  0
   -0.8969   -2.1451    1.1667 O   0  0  0  0  0  0  0  0  0  0  0  0
   -0.8722   -3.2000   -1.3840 O   0  0  0  0  0  0  0  0  0  0  0  0
    1.1774    3.5767    0.2655 O   0  0  0  0  0  0  0  0  0  0  0  0
   -0.2939    2.7129    1.8038 O   0  0  0  0  0  0  0  0  0  0  0  0
    0.5824   -0.7776   -0.8976 C   0  0  0  0  0  0  0  0  0  0  0  0
   -0.0896    1.4792   -0.2358 C   0  0  0  0  0  0  0  0  0  0  0  0
    0.2418    2.6283    0.6664 C   0  0  0  0  0  0  0  0  0  0  0  0
    0.7949    0.3367    0.0425 N   0  0  0  0  0  4  0  0  0  0  0  0
   -1.6796   -2.7390    1.2911 H   0  0  0  0  0  0  0  0  0  0  0  0
   -0.0812   -3.6935   -1.0499 H   0  0  0  0  0  0  0  0  0  0  0  0
    1.4251    4.3501    0.8710 H   0  0  0  0  0  0  0  0  0  0  0  0
    0.5055   -0.4127   -1.9453 H   0  0  0  0  0  0  0  0  0  0  0  0
    1.4589   -1.4600   -0.8514 H   0  0  0  0  0  0  0  0  0  0  0  0
    0.0264    1.8122   -1.2911 H   0  0  0  0  0  0  0  0  0  0  0  0
   -1.1516    1.1993   -0.0732 H   0  0  0  0  0  0  0  0  0  0  0  0
    0.6576    0.0080    1.0269 H   0  0  0  0  0  0  0  0  0  0  0  0
    1.7887    0.6528   -0.0575 H   0  0  0  0  0  0  0  0  0  0  0  0
  1  2  2  0
  1  3  1  0
  1  4  1  0
  1  7  1  0
  5  9  1  0
  6  9  2  0
  8  9  1  0
  7 10  1  0
  8 10  1  0
  3 11  1  0
  4 12  1  0
  5 13  1  0
  7 14  1  0
  7 15  1  0
  8 16  1  0
  8 17  1  0
 10 18  1  0
 10 19  1  0
M  CHG  1  10   1
M  END
