7F51_BA7_A_402
     RDKit          3D

 44 48  0  0  0  0  0  0  0  0999 V2000
   -1.2007    7.1583    0.1243 C   0  0  0  0  0  0  0  0  0  0  0  0
   -3.3791    4.7339   15.5276 C   0  0  2  0  0  0  0  0  0  0  0  0
   -2.9714    7.8581   -1.3355 C   0  0  0  0  0  0  0  0  0  0  0  0
   -2.4025    7.8161   -0.0660 C   0  0  0  0  0  0  0  0  0  0  0  0
   -0.8965    9.4496    4.3010 C   0  0  2  0  0  0  0  0  0  0  0  0
   -3.6444    1.2999   18.4038 C   0  0  0  0  0  0  0  0  0  0  0  0
   -3.6699    6.1176   15.9973 C   0  0  1  0  0  0  0  0  0  0  0  0
   -0.5304    8.1101    3.7385 C   0  0  1  0  0  0  0  0  0  0  0  0
   -0.5660    6.5457   -0.9363 C   0  0  0  0  0  0  0  0  0  0  0  0
   -3.7322    6.8925   14.6750 C   0  0  1  0  0  0  0  0  0  0  0  0
   -1.1128    7.1724    4.7745 C   0  0  1  0  0  0  0  0  0  0  0  0
   -2.6303    2.9520   17.1625 C   0  0  0  0  0  0  0  0  0  0  0  0
   -3.9810    5.7519   13.7093 C   0  0  1  0  0  0  0  0  0  0  0  0
   -2.3264    7.9670    5.2049 C   0  0  1  0  0  0  0  0  0  0  0  0
   -1.4214    2.5563   17.6937 C   0  0  0  0  0  0  0  0  0  0  0  0
   -3.6896    6.1252   12.2760 C   0  0  0  0  0  0  0  0  0  0  0  0
   -2.7776    7.5756    6.5950 C   0  0  0  0  0  0  0  0  0  0  0  0
   -1.3055    1.5168   18.5962 C   0  0  0  0  0  0  0  0  0  0  0  0
   -0.6596    7.1518    1.4779 C   0  0  0  0  0  0  0  0  0  0  0  0
   -1.1358    6.5872   -2.2102 C   0  0  0  0  0  0  0  0  0  0  0  0
   -1.1000    4.2280   16.3244 C   0  0  0  0  0  0  0  0  0  0  0  0
   -2.3399    7.2418   -2.4209 C   0  0  0  0  0  0  0  0  0  0  0  0
   -2.4710    0.8979   18.9345 N   0  0  0  0  0  0  0  0  0  0  0  0
   -3.7466    2.3109   17.5278 N   0  0  0  0  0  0  0  0  0  0  0  0
   -0.0577    1.1046   19.1482 N   0  0  0  0  0  0  0  0  0  0  0  0
   -0.5046    3.3580   17.1599 N   0  0  0  0  0  0  0  0  0  0  0  0
   -2.4429    3.9920   16.3086 N   0  0  0  0  0  0  0  0  0  0  0  0
   -1.0661    8.4509   10.9377 O   0  0  0  0  0  0  0  0  0  0  0  0
   -4.1176    6.4592    8.8721 O   0  0  0  0  0  0  0  0  0  0  0  0
    0.1945    9.8477    5.1064 O   0  0  0  0  0  0  0  0  0  0  0  0
   -4.9446    6.2268   16.5842 O   0  0  0  0  0  0  0  0  0  0  0  0
   -3.5205    8.1226   10.2802 O   0  0  0  0  0  0  0  0  0  0  0  0
   -3.0030    4.1361    8.5247 O   0  0  0  0  0  0  0  0  0  0  0  0
   -1.2107    7.8803    2.5228 O   0  0  0  0  0  0  0  0  0  0  0  0
   -4.7898    7.7975   14.6959 O   0  0  0  0  0  0  0  0  0  0  0  0
   -1.6007    6.2602    9.5702 O   0  0  0  0  0  0  0  0  0  0  0  0
   -1.4517    5.9405    4.2277 O   0  0  0  0  0  0  0  0  0  0  0  0
   -3.0436    4.8075   14.1830 O   0  0  0  0  0  0  0  0  0  0  0  0
   -1.9845    9.2989    5.1135 O   0  0  0  0  0  0  0  0  0  0  0  0
   -2.3597    6.5376   12.2288 O   0  0  0  0  0  0  0  0  0  0  0  0
   -2.4754    6.2771    6.9098 O   0  0  0  0  0  0  0  0  0  0  0  0
    0.3493    6.4590    1.7158 O   0  0  0  0  0  0  0  0  0  0  0  0
   -2.0822    7.3346   10.7568 P   0  0  1  0  0  0  0  0  0  0  0  0
   -2.7990    5.8318    8.4900 P   0  0  2  0  0  0  0  0  0  0  0  0
  3  4  2  0
  1  4  1  0
  2  7  1  0
  5  8  1  0
  1  9  2  0
  7 10  1  0
  8 11  1  0
 10 13  1  0
 11 14  1  0
 12 15  1  0
 13 16  1  6
 14 17  1  1
 15 18  2  0
  1 19  1  0
  9 20  1  0
 20 22  2  0
  3 22  1  0
  6 23  2  0
 18 23  1  0
 12 24  2  0
  6 24  1  0
 18 25  1  0
 21 26  2  0
 15 26  1  0
  2 27  1  1
 21 27  1  0
 12 27  1  0
  5 30  1  1
  7 31  1  6
 19 34  1  0
  8 34  1  6
 10 35  1  1
 11 37  1  6
 13 38  1  0
  2 38  1  0
  5 39  1  0
 14 39  1  0
 16 40  1  0
 17 41  1  0
 19 42  2  0
 36 43  1  0
 28 43  2  0
 43 32  1  6
 40 43  1  0
 41 44  1  0
 29 44  2  0
 44 33  1  6
 36 44  1  0
M  END
$$$$
