
     RDKit          3D

 26 28  0  0  0  0  0  0  0  0999 V2000
   32.4949   -8.6967    7.6208 P   0  0  0  0  0  5  0  0  0  0  0  0
   33.0499   -7.9992    6.4292 O   0  0  0  0  0  0  0  0  0  0  0  0
   31.9348   -7.7103    8.7414 O   0  0  0  0  0  0  0  0  0  0  0  0
   31.1788   -9.5338    7.2658 O   0  0  0  0  0  0  0  0  0  0  0  0
   34.7282   -9.2842    9.1569 P   0  0  2  0  0  5  0  0  0  0  0  0
   34.5151   -8.4925   10.4029 O   0  0  0  0  0  0  0  0  0  0  0  0
   35.5372   -8.4430    8.0568 O   0  0  0  0  0  0  0  0  0  0  0  0
   33.4267   -9.7340    8.3723 O   0  0  0  0  0  0  0  0  0  0  0  0
   35.6057  -10.6185    9.2807 O   0  0  0  0  0  0  0  0  0  0  0  0
   35.0200  -11.7643    9.8678 C   0  0  0  0  0  0  0  0  0  0  0  0
   36.1042  -12.8130   10.1174 C   0  0  1  0  0  0  0  0  0  0  0  0
   36.5866  -13.3469    8.8742 O   0  0  0  0  0  0  0  0  0  0  0  0
   37.3068  -12.2640   10.8892 C   0  0  1  0  0  0  0  0  0  0  0  0
   37.1640  -12.4042   12.3065 O   0  0  0  0  0  0  0  0  0  0  0  0
   38.4602  -13.0782   10.3499 C   0  0  0  0  0  0  0  0  0  0  0  0
   38.0205  -13.4395    8.9378 C   0  0  2  0  0  0  0  0  0  0  0  0
   38.5972  -12.6451    7.8708 N   0  0  0  0  0  0  0  0  0  0  0  0
   38.4142  -11.2934    7.7138 C   0  0  0  0  0  0  0  0  0  0  0  0
   39.0405  -10.8267    6.6545 N   0  0  0  0  0  0  0  0  0  0  0  0
   39.6651  -11.9276    6.1040 C   0  0  0  0  0  0  0  0  0  0  0  0
   40.4874  -12.0873    4.9755 C   0  0  0  0  0  0  0  0  0  0  0  0
   40.8336  -11.0389    4.1313 N   0  0  0  0  0  0  0  0  0  0  0  0
   40.9862  -13.3150    4.7060 N   0  0  0  0  0  0  0  0  0  0  0  0
   40.6474  -14.3386    5.5201 C   0  0  0  0  0  0  0  0  0  0  0  0
   39.8584  -14.3038    6.6123 N   0  0  0  0  0  0  0  0  0  0  0  0
   39.4065  -13.0649    6.8515 C   0  0  0  0  0  0  0  0  0  0  0  0
  1  2  2  0
  1  3  1  0
  1  4  1  0
  5  6  2  0
  5  7  1  6
  1  8  1  0
  5  8  1  0
  5  9  1  0
  9 10  1  0
 11 10  1  6
 11 12  1  0
 11 13  1  0
 13 14  1  1
 13 15  1  0
 12 16  1  0
 15 16  1  0
 16 17  1  6
 17 18  4  0
 18 19  4  0
 19 20  4  0
 20 21  4  0
 21 22  1  0
 21 23  4  0
 23 24  4  0
 24 25  4  0
 17 26  4  0
 20 26  4  0
 25 26  4  0
M  END
