
     RDKit          3D

 34 39  0  0  0  0  0  0  0  0999 V2000
   21.5203   -8.9849   28.4236 N   0  0  0  0  0  0  0  0  0  0  0  0
   24.9934   -5.6070   20.2614 N   0  0  0  0  0  0  0  0  0  0  0  0
   19.6901   -9.2328   26.7884 C   0  0  0  0  0  0  0  0  0  0  0  0
   21.4640   -7.0164   25.3857 C   0  0  0  0  0  0  0  0  0  0  0  0
   20.7320   -5.8218   25.2892 C   0  0  0  0  0  0  0  0  0  0  0  0
   20.4985   -5.2308   24.0414 C   0  0  0  0  0  0  0  0  0  0  0  0
   21.0331   -5.8077   22.8881 C   0  0  0  0  0  0  0  0  0  0  0  0
   22.2015   -5.2219   20.7805 C   0  0  0  0  0  0  0  0  0  0  0  0
   21.9993   -7.5891   24.2249 C   0  0  0  0  0  0  0  0  0  0  0  0
   26.1952   -5.9842   19.7024 C   0  0  0  0  0  0  0  0  0  0  0  0
   27.3831   -8.0472   18.6565 C   0  0  0  0  0  0  0  0  0  0  0  0
   25.3212   -9.4763   15.7717 C   0  0  0  0  0  0  0  0  0  0  0  0
   26.1529   -9.2247   14.6695 C   0  0  0  0  0  0  0  0  0  0  0  0
   27.3621   -8.5457   14.8659 C   0  0  0  0  0  0  0  0  0  0  0  0
   24.8991  -10.7242   13.0720 C   0  0  0  0  0  0  0  0  0  0  0  0
   25.6445   -9.7500   11.2479 C   0  0  0  0  0  0  0  0  0  0  0  0
   20.9691   -8.6503   27.2714 C   0  0  0  0  0  0  0  0  0  0  0  0
   22.5724   -8.1351   28.6087 C   0  0  0  0  0  0  0  0  0  0  0  0
   23.4212   -8.2431   29.8153 C   0  0  0  0  0  0  0  0  0  0  0  0
   21.6736   -7.6191   26.6583 N   0  0  0  0  0  0  0  0  0  0  0  0
   22.6562   -7.2543   27.5560 C   0  0  0  0  0  0  0  0  0  0  0  0
   21.7966   -6.9832   22.9770 C   0  0  0  0  0  0  0  0  0  0  0  0
   22.3591   -7.5755   21.6997 C   0  0  0  0  0  0  0  0  0  0  0  0
   22.8832   -6.5271   20.8128 N   0  0  0  0  0  0  0  0  0  0  0  0
   20.8540   -5.2194   21.5165 C   0  0  0  0  0  0  0  0  0  0  0  0
   24.1873   -6.6381   20.4160 C   0  0  0  0  0  0  0  0  0  0  0  0
   24.9559   -8.1525   20.0513 S   0  0  0  0  0  0  0  0  0  0  0  0
   26.3140   -7.3281   19.4183 C   0  0  0  0  0  0  0  0  0  0  0  0
   26.9155   -8.3979   17.2558 C   0  0  0  0  0  0  0  0  0  0  0  0
   27.7389   -8.1414   16.1506 C   0  0  0  0  0  0  0  0  0  0  0  0
   25.7005   -9.0678   17.0537 C   0  0  0  0  0  0  0  0  0  0  0  0
   25.7661   -9.6929   13.3815 N   0  0  0  0  0  0  0  0  0  0  0  0
   26.2466   -9.1097   12.2493 N   0  0  0  0  0  0  0  0  0  0  0  0
   24.7936  -10.7680   11.7001 C   0  0  0  0  0  0  0  0  0  0  0  0
  4  5  4  0
  5  6  4  0
  6  7  4  0
  4  9  4  0
  2 10  4  0
 12 13  4  0
 13 14  4  0
  1 17  4  0
  3 17  1  0
  1 18  4  0
 18 19  1  0
 17 20  4  0
  4 20  1  0
 18 21  4  0
 20 21  4  0
  9 22  4  0
  7 22  4  0
 22 23  1  0
 23 24  1  0
  8 24  1  0
  7 25  1  0
  8 25  1  0
 24 26  1  0
  2 26  4  0
 26 27  4  0
 10 28  4  0
 27 28  4  0
 11 28  1  0
 11 29  1  0
 29 30  4  0
 14 30  4  0
 29 31  4  0
 12 31  4  0
 13 32  1  0
 15 32  4  0
 32 33  4  0
 16 33  4  0
 15 34  4  0
 16 34  4  0
M  END
