
     RDKit          3D

 20 22  0  0  0  0  0  0  0  0999 V2000
    3.3857    1.5507   -3.2651 N   0  0  0  0  0  0  0  0  0  0  0  0
    4.3821    1.1163   -4.2462 C   0  0  0  0  0  0  0  0  0  0  0  0
    5.0548   -0.1886   -3.8048 C   0  0  0  0  0  0  0  0  0  0  0  0
    5.5148   -0.1408   -2.3690 C   0  0  0  0  0  0  0  0  0  0  0  0
    6.4106   -1.0978   -1.8835 C   0  0  0  0  0  0  0  0  0  0  0  0
    6.8081   -1.0741   -0.5450 C   0  0  0  0  0  0  0  0  0  0  0  0
    5.5948   -2.2076    2.3008 C   0  0  0  0  0  0  0  0  0  0  0  0
    6.1116   -1.8938    4.9724 C   0  0  0  0  0  0  0  0  0  0  0  0
    6.5828   -0.8761    3.9899 C   0  0  0  0  0  0  0  0  0  0  0  0
    6.3994   -1.0158    2.6693 C   0  0  0  0  0  0  0  0  0  0  0  0
    6.3194   -0.1019    0.3375 C   0  0  0  0  0  0  0  0  0  0  0  0
    5.4143    0.8472   -0.1546 C   0  0  0  0  0  0  0  0  0  0  0  0
    4.9946    0.8291   -1.4967 C   0  0  0  0  0  0  0  0  0  0  0  0
    4.0399    1.8904   -1.9963 C   0  0  0  0  0  0  0  0  0  0  0  0
    4.9724   -4.0540    5.2936 C   0  0  0  0  0  0  0  0  0  0  0  0
    6.7821   -0.1273    1.6740 N   0  0  0  0  0  0  0  0  0  0  0  0
    5.1817   -3.1406    3.0939 N   0  0  0  0  0  0  0  0  0  0  0  0
    5.4904   -3.0124    4.4250 N   0  0  0  0  0  0  0  0  0  0  0  0
    6.2807   -1.7357    6.1804 O   0  0  0  0  0  0  0  0  0  0  0  0
    7.4271    0.5004    4.6226 Cl  0  0  0  0  0  0  0  0  0  0  0  0
  1  2  1  0
  2  3  1  0
  3  4  1  0
  4  5  4  0
  5  6  4  0
  8  9  4  0
  7 10  4  0
  9 10  4  0
  6 11  4  0
 11 12  4  0
  4 13  4  0
 12 13  4  0
  1 14  1  0
 13 14  1  0
 11 16  1  0
 10 16  1  0
  7 17  4  0
 17 18  4  0
  8 18  4  0
 15 18  1  0
  8 19  2  0
  9 20  1  0
M  END
