7ES1_UDP_A_501
     RDKit          3D

 25 26  0  0  0  0  0  0  0  0999 V2000
   13.4238    8.9311   17.4224 N   0  0  0  0  0  0  0  0  0  0  0  0
   13.4882    9.7829   16.3831 C   0  0  0  0  0  0  0  0  0  0  0  0
   14.4736    9.6532   15.4828 N   0  0  0  0  0  0  0  0  0  0  0  0
   15.4274    8.7148   15.5378 C   0  0  0  0  0  0  0  0  0  0  0  0
   15.3859    7.8241   16.5970 C   0  0  0  0  0  0  0  0  0  0  0  0
   14.3628    7.9860   17.5007 C   0  0  0  0  0  0  0  0  0  0  0  0
   12.6418   10.7172   16.2186 O   0  0  0  0  0  0  0  0  0  0  0  0
   16.3008    8.6862   14.6415 O   0  0  0  0  0  0  0  0  0  0  0  0
   12.3808    9.0438   18.4034 C   0  0  1  0  0  0  0  0  0  0  0  0
   11.0687    8.6186   17.8239 C   0  0  2  0  0  0  0  0  0  0  0  0
   10.1964    9.7201   17.7899 O   0  0  0  0  0  0  0  0  0  0  0  0
   10.5299    7.6878   18.8790 C   0  0  1  0  0  0  0  0  0  0  0  0
   11.3468    8.1034   20.0920 C   0  0  2  0  0  0  0  0  0  0  0  0
   12.6124    8.2699   19.5266 O   0  0  0  0  0  0  0  0  0  0  0  0
    9.1642    7.8697   19.0689 O   0  0  0  0  0  0  0  0  0  0  0  0
   11.3422    7.0023   21.1304 C   0  0  0  0  0  0  0  0  0  0  0  0
   10.6417    5.9358   20.6026 O   0  0  0  0  0  0  0  0  0  0  0  0
   10.7625    4.5502   21.5683 P   0  0  2  0  0  5  0  0  0  0  0  0
    9.7660    3.4951   21.1979 O   0  0  0  0  0  0  0  0  0  0  0  0
   10.4469    5.0920   23.1593 O   0  0  0  0  0  0  0  0  0  0  0  0
   12.3412    4.0184   21.5453 O   0  0  0  0  0  0  0  0  0  0  0  0
   13.0172    3.7318   23.0478 P   0  0  2  0  0  5  0  0  0  0  0  0
   11.9668    2.9942   23.8836 O   0  0  0  0  0  0  0  0  0  0  0  0
   13.4227    5.1302   23.8704 O   0  0  0  0  0  0  0  0  0  0  0  0
   14.3736    2.7207   22.9898 O   0  0  0  0  0  0  0  0  0  0  0  0
  1  2  1  0
  2  3  1  0
  3  4  1  0
  4  5  1  0
  1  6  1  0
  5  6  2  0
  2  7  2  0
  4  8  2  0
  9  1  1  6
  9 10  1  0
 10 11  1  1
 10 12  1  0
 12 13  1  0
  9 14  1  0
 13 14  1  6
 12 15  1  1
 13 16  1  0
 16 17  1  1
 18 17  1  0
 18 19  2  0
 18 20  1  1
 18 21  1  0
 21 22  1  0
 22 23  2  0
 22 24  1  1
 22 25  1  0
M  END
$$$$
