1S3V_TQD_A_187
     RDKit          3D

 27 29  0  0  0  0  0  0  0  0999 V2000
   -1.0281   37.4446    5.4158 C   0  0  2  0  0  0  0  0  0  0  0  0
   -2.9144   36.3120    6.1802 C   0  0  0  0  0  0  0  0  0  0  0  0
   -2.6541   35.2817    5.2585 C   0  0  0  0  0  0  0  0  0  0  0  0
   -3.4647   33.9532    5.3650 C   0  0  0  0  0  0  0  0  0  0  0  0
   -3.3448   33.1120    4.0690 C   0  0  1  0  0  0  0  0  0  0  0  0
   -1.8655   33.0240    3.6224 C   0  0  0  0  0  0  0  0  0  0  0  0
   -1.1077   34.3882    3.4403 C   0  0  0  0  0  0  0  0  0  0  0  0
   -1.5353   35.4093    4.4205 C   0  0  0  0  0  0  0  0  0  0  0  0
   -4.0186   31.7230    4.3503 C   0  0  0  0  0  0  0  0  0  0  0  0
   -5.4434   30.0094    3.1986 C   0  0  0  0  0  0  0  0  0  0  0  0
   -6.3401   29.7105    2.1927 C   0  0  0  0  0  0  0  0  0  0  0  0
   -6.8805   28.4357    2.0278 C   0  0  0  0  0  0  0  0  0  0  0  0
   -8.6231   29.2493    0.4689 C   0  0  0  0  0  0  0  0  0  0  0  0
   -6.5215   27.4658    2.9101 C   0  0  0  0  0  0  0  0  0  0  0  0
   -6.2032   25.2474    2.1061 C   0  0  0  0  0  0  0  0  0  0  0  0
   -5.6028   27.7153    3.9375 C   0  0  0  0  0  0  0  0  0  0  0  0
   -4.7516   26.9910    6.1003 C   0  0  0  0  0  0  0  0  0  0  0  0
   -5.0770   28.9924    4.0923 C   0  0  0  0  0  0  0  0  0  0  0  0
   -0.6732   36.4949    4.5432 N   0  0  0  0  0  0  0  0  0  0  0  0
   -0.1053   38.4346    5.5199 N   0  0  0  0  0  0  0  0  0  0  0  0
   -2.1036   37.3800    6.2756 N   0  0  0  0  0  0  0  0  0  0  0  0
   -4.0053   36.2764    6.9860 N   0  0  0  0  0  0  0  0  0  0  0  0
   -4.9603   31.3358    3.2940 N   0  0  0  0  0  0  0  0  0  0  0  0
   -7.8019   28.2136    0.9969 O   0  0  0  0  0  0  0  0  0  0  0  0
   -6.9005   26.1497    2.9677 O   0  0  0  0  0  0  0  0  0  0  0  0
   -5.2789   26.6778    4.7854 O   0  0  0  0  0  0  0  0  0  0  0  0
   -5.3862   32.3490    2.3097 C   0  0  0  0  0  0  0  0  0  0  0  0
  2  3  1  0
  3  4  1  0
  4  5  1  0
  5  6  1  0
  6  7  1  0
  3  8  2  0
  7  8  1  0
  5  9  1  1
 10 11  2  0
 11 12  1  0
 12 14  2  0
 14 16  1  0
 10 18  1  0
 16 18  2  0
  1 19  1  0
  8 19  1  0
  1 20  1  1
  1 21  1  0
  2 21  2  0
  2 22  1  0
  9 23  1  0
 10 23  1  0
 12 24  1  0
 13 24  1  0
 14 25  1  0
 15 25  1  0
 16 26  1  0
 17 26  1  0
 23 27  1  0
M  END
