1S3V_TQD_A_187
     RDKit          3D

 56 58  0  0  0  0  0  0  0  0999 V2000
    1.4368   31.2480    1.7495 C   0  0  2  0  0  0  0  0  0  0  0  0
   -0.5267   31.2714    3.1944 C   0  0  0  0  0  0  0  0  0  0  0  0
   -1.1484   30.1857    2.3846 C   0  0  0  0  0  0  0  0  0  0  0  0
   -2.5869   29.7829    2.6459 C   0  0  1  0  0  0  0  0  0  0  0  0
   -3.1912   28.8991    1.5386 C   0  0  1  0  0  0  0  0  0  0  0  0
   -2.1972   27.7773    1.2030 C   0  0  2  0  0  0  0  0  0  0  0  0
   -0.8966   28.3759    0.6667 C   0  0  1  0  0  0  0  0  0  0  0  0
   -0.3671   29.5046    1.5184 C   0  0  0  0  0  0  0  0  0  0  0  0
   -4.5626   28.3439    1.9877 C   0  0  2  0  0  0  0  0  0  0  0  0
   -3.2059   26.5117    3.0962 C   0  0  0  0  0  0  0  0  0  0  0  0
   -3.1469   25.2551    2.4837 C   0  0  0  0  0  0  0  0  0  0  0  0
   -1.9695   24.4841    2.5226 C   0  0  0  0  0  0  0  0  0  0  0  0
   -2.9206   22.2251    1.9873 C   0  0  2  0  0  0  0  0  0  0  0  0
   -0.8305   24.9941    3.1996 C   0  0  0  0  0  0  0  0  0  0  0  0
    0.6959   23.0281    2.7453 C   0  0  1  0  0  0  0  0  0  0  0  0
   -0.8958   26.2522    3.8218 C   0  0  0  0  0  0  0  0  0  0  0  0
    0.2636   27.8141    5.4006 C   0  0  2  0  0  0  0  0  0  0  0  0
   -2.0824   27.0031    3.7681 C   0  0  0  0  0  0  0  0  0  0  0  0
    0.9921   29.9190    1.3231 N   0  0  0  0  0  0  0  0  0  0  0  0
    2.8556   31.2256    2.0937 N   0  0  0  0  0  0  0  0  0  0  0  0
    0.6654   31.7044    2.9055 N   0  0  0  0  0  0  0  0  0  0  0  0
   -1.1943   31.8168    4.3369 N   0  0  0  0  0  0  0  0  0  0  0  0
   -4.4087   27.2980    3.0109 N   0  0  0  0  0  0  0  0  0  0  0  0
   -1.9126   23.2275    1.8996 O   0  0  0  0  0  0  0  0  0  0  0  0
    0.3959   24.3074    3.2923 O   0  0  0  0  0  0  0  0  0  0  0  0
    0.2500   26.7253    4.4829 O   0  0  0  0  0  0  0  0  0  0  0  0
   -5.4979   27.0732    3.9645 C   0  0  1  0  0  0  0  0  0  0  0  0
    1.2757   31.9623    0.9135 H   0  0  0  0  0  0  0  0  0  0  0  0
   -2.6213   29.2387    3.6153 H   0  0  0  0  0  0  0  0  0  0  0  0
   -3.2090   30.6993    2.7377 H   0  0  0  0  0  0  0  0  0  0  0  0
   -3.3450   29.5318    0.6352 H   0  0  0  0  0  0  0  0  0  0  0  0
   -2.6059   27.0998    0.4283 H   0  0  0  0  0  0  0  0  0  0  0  0
   -1.9822   27.1712    2.1113 H   0  0  0  0  0  0  0  0  0  0  0  0
   -0.1330   27.5712    0.6015 H   0  0  0  0  0  0  0  0  0  0  0  0
   -1.0691   28.7647   -0.3600 H   0  0  0  0  0  0  0  0  0  0  0  0
   -5.0856   27.9100    1.1063 H   0  0  0  0  0  0  0  0  0  0  0  0
   -5.2143   29.1655    2.3542 H   0  0  0  0  0  0  0  0  0  0  0  0
   -4.0231   24.8948    1.9635 H   0  0  0  0  0  0  0  0  0  0  0  0
   -3.6877   22.5199    2.7335 H   0  0  0  0  0  0  0  0  0  0  0  0
   -2.4557   21.2723    2.3141 H   0  0  0  0  0  0  0  0  0  0  0  0
   -3.3896   22.0667    0.9926 H   0  0  0  0  0  0  0  0  0  0  0  0
    1.7739   22.7960    2.8771 H   0  0  0  0  0  0  0  0  0  0  0  0
    0.1068   22.2597    3.2874 H   0  0  0  0  0  0  0  0  0  0  0  0
    0.4079   22.9918    1.6740 H   0  0  0  0  0  0  0  0  0  0  0  0
    1.2094   28.3865    5.2992 H   0  0  0  0  0  0  0  0  0  0  0  0
    0.1986   27.4173    6.4343 H   0  0  0  0  0  0  0  0  0  0  0  0
   -0.6076   28.4779    5.2190 H   0  0  0  0  0  0  0  0  0  0  0  0
   -2.1434   27.9629    4.2597 H   0  0  0  0  0  0  0  0  0  0  0  0
    1.5938   29.3791    0.6602 H   0  0  0  0  0  0  0  0  0  0  0  0
    3.0866   30.2855    2.4923 H   0  0  0  0  0  0  0  0  0  0  0  0
    3.4121   31.3346    1.2146 H   0  0  0  0  0  0  0  0  0  0  0  0
   -2.1483   31.5089    4.6218 H   0  0  0  0  0  0  0  0  0  0  0  0
   -0.7135   32.5281    4.9318 H   0  0  0  0  0  0  0  0  0  0  0  0
   -6.3581   26.5971    3.4488 H   0  0  0  0  0  0  0  0  0  0  0  0
   -5.1749   26.4174    4.8009 H   0  0  0  0  0  0  0  0  0  0  0  0
   -5.8208   28.0456    4.3928 H   0  0  0  0  0  0  0  0  0  0  0  0
  2  3  1  0
  3  4  1  0
  4  5  1  0
  5  6  1  0
  6  7  1  0
  3  8  2  0
  7  8  1  0
  5  9  1  0
 10 11  2  0
 11 12  1  0
 12 14  2  0
 14 16  1  0
 10 18  1  0
 16 18  2  0
  1 19  1  0
  8 19  1  0
  1 20  1  0
  1 21  1  0
  2 21  2  0
  2 22  1  0
  9 23  1  0
 10 23  1  0
 12 24  1  0
 13 24  1  0
 14 25  1  0
 15 25  1  0
 16 26  1  0
 17 26  1  0
 23 27  1  0
  1 28  1  6
  4 29  1  1
  4 30  1  0
  5 31  1  6
  6 32  1  6
  6 33  1  0
  7 34  1  6
  7 35  1  0
  9 36  1  6
  9 37  1  0
 11 38  1  0
 13 39  1  1
 13 40  1  0
 13 41  1  0
 15 42  1  6
 15 43  1  0
 15 44  1  0
 17 45  1  1
 17 46  1  0
 17 47  1  0
 18 48  1  0
 19 49  1  0
 20 50  1  0
 20 51  1  0
 22 52  1  0
 22 53  1  0
 27 54  1  6
 27 55  1  0
 27 56  1  0
M  END
