7LJN_GTP_A_501
     RDKit          3D

 48 50  0  0  0  0  0  0  0  0999 V2000
   -2.4484    1.5577    1.5703 P   0  0  2  0  0  5  0  0  0  0  0  0
   -1.7979    2.9085    1.7643 O   0  0  0  0  0  0  0  0  0  0  0  0
   -3.9721    1.7858    0.8664 O   0  0  0  0  0  0  0  0  0  0  0  0
   -2.6263    0.8170    3.0822 O   0  0  0  0  0  0  0  0  0  0  0  0
   -1.4444    0.6104    0.5740 O   0  0  0  0  0  0  0  0  0  0  0  0
   -2.1577    0.5409   -0.9700 P   0  0  1  0  0  5  0  0  0  0  0  0
   -2.2964    1.9595   -1.4769 O   0  0  0  0  0  0  0  0  0  0  0  0
   -1.1673   -0.3250   -2.0394 O   0  0  0  0  0  0  0  0  0  0  0  0
   -3.6914   -0.1915   -0.8384 O   0  0  0  0  0  0  0  0  0  0  0  0
   -3.7284   -1.1055    0.6017 P   0  0  1  0  0  5  0  0  0  0  0  0
   -2.6815   -0.5772    1.5565 O   0  0  0  0  0  0  0  0  0  0  0  0
   -5.2457   -1.0226    1.3515 O   0  0  0  0  0  0  0  0  0  0  0  0
   -3.3666   -2.7405    0.2706 O   0  0  0  0  0  0  0  0  0  0  0  0
   -2.4653   -2.7942   -0.8104 C   0  0  0  0  0  0  0  0  0  0  0  0
   -2.7979   -1.6723   -1.8017 C   0  0  1  0  0  0  0  0  0  0  0  0
   -3.2605   -0.5412   -1.0884 O   0  0  0  0  0  0  0  0  0  0  0  0
   -1.5733   -1.2803   -2.6381 C   0  0  1  0  0  0  0  0  0  0  0  0
   -1.9680   -0.9520   -3.9464 O   0  0  0  0  0  0  0  0  0  0  0  0
   -1.0708   -0.0615   -1.9068 C   0  0  1  0  0  0  0  0  0  0  0  0
   -0.3849    0.8485   -2.7356 O   0  0  0  0  0  0  0  0  0  0  0  0
   -2.3437    0.5132   -1.2918 C   0  0  2  0  0  0  0  0  0  0  0  0
   -2.0477    1.1786   -0.0222 N   0  0  0  0  0  4  0  0  0  0  0  0
   -0.9546    1.0268    0.7712 C   0  0  0  0  0  0  0  0  0  0  0  0
   -0.9372    1.8770    1.8352 N   0  0  0  0  0  0  0  0  0  0  0  0
   -2.0708    2.5836    1.6669 C   0  0  0  0  0  0  0  0  0  0  0  0
   -2.5831    3.6235    2.4285 C   0  0  0  0  0  0  0  0  0  0  0  0
   -1.9897    4.0272    3.4639 O   0  0  0  0  0  0  0  0  0  0  0  0
   -3.7536    4.2020    2.0191 N   0  0  0  0  0  4  0  0  0  0  0  0
   -4.4000    3.7709    0.8829 C   0  0  0  0  0  0  0  0  0  0  0  0
   -5.6169    4.3923    0.4709 N   0  0  0  0  0  0  0  0  0  0  0  0
   -3.8805    2.7453    0.1400 N   0  0  0  0  0  0  0  0  0  0  0  0
   -2.7261    2.1745    0.5590 C   0  0  0  0  0  0  0  0  0  0  0  0
   -4.5176    2.2102    1.5756 H   0  0  0  0  0  0  0  0  0  0  0  0
   -1.7010    0.6282    3.3811 H   0  0  0  0  0  0  0  0  0  0  0  0
   -1.4591   -1.2679   -1.9558 H   0  0  0  0  0  0  0  0  0  0  0  0
   -5.8655   -1.4780    0.7293 H   0  0  0  0  0  0  0  0  0  0  0  0
   -2.5676   -3.7682   -1.3401 H   0  0  0  0  0  0  0  0  0  0  0  0
   -1.4129   -2.6639   -0.4674 H   0  0  0  0  0  0  0  0  0  0  0  0
   -3.6140   -2.0324   -2.4670 H   0  0  0  0  0  0  0  0  0  0  0  0
   -0.7859   -2.0709   -2.6626 H   0  0  0  0  0  0  0  0  0  0  0  0
   -2.0981   -1.8119   -4.4259 H   0  0  0  0  0  0  0  0  0  0  0  0
   -0.3799   -0.3933   -1.0988 H   0  0  0  0  0  0  0  0  0  0  0  0
   -1.0337    1.2593   -3.3639 H   0  0  0  0  0  0  0  0  0  0  0  0
   -2.8205    1.2433   -1.9833 H   0  0  0  0  0  0  0  0  0  0  0  0
   -0.1664    0.3124    0.5749 H   0  0  0  0  0  0  0  0  0  0  0  0
   -4.1590    4.9873    2.5773 H   0  0  0  0  0  0  0  0  0  0  0  0
   -6.0261    5.1809    1.0195 H   0  0  0  0  0  0  0  0  0  0  0  0
   -6.1120    4.0629   -0.3874 H   0  0  0  0  0  0  0  0  0  0  0  0
  1  2  2  0
  1  3  1  6
  1  4  1  0
  1  5  1  0
  6  5  1  1
  6  7  2  0
  6  8  1  0
  6  9  1  0
 10  9  1  6
 10 11  2  0
 10 12  1  0
 10 13  1  0
 13 14  1  0
 15 14  1  0
 15 16  1  0
 15 17  1  0
 17 18  1  0
 17 19  1  0
 19 20  1  0
 16 21  1  0
 19 21  1  0
 21 22  1  0
 22 23  4  0
 23 24  4  0
 24 25  4  0
 25 26  4  0
 26 27  2  0
 26 28  4  0
 28 29  4  0
 29 30  1  0
 29 31  4  0
 22 32  4  0
 25 32  4  0
 31 32  4  0
  3 33  1  0
  4 34  1  0
  8 35  1  0
 12 36  1  0
 14 37  1  0
 14 38  1  0
 15 39  1  6
 17 40  1  6
 18 41  1  0
 19 42  1  1
 20 43  1  0
 21 44  1  6
 23 45  1  0
 28 46  1  0
 30 47  1  0
 30 48  1  0
M  CHG  2  22   1  28   1
M  END
