
     RDKit          3D

 31 35  0  0  0  0  0  0  0  0999 V2000
  -39.6540 -114.8506  226.1414 C   0  0  0  0  0  0  0  0  0  0  0  0
  -39.2051 -114.8604  224.8156 C   0  0  0  0  0  0  0  0  0  0  0  0
  -39.4593 -116.0111  224.0625 C   0  0  0  0  0  0  0  0  0  0  0  0
  -40.2858 -115.9574  226.6905 C   0  0  0  0  0  0  0  0  0  0  0  0
  -40.1679 -114.3475  228.3048 N   0  0  0  0  0  0  0  0  0  0  0  0
  -39.2253 -115.2788  220.4348 C   0  0  0  0  0  0  0  0  0  0  0  0
  -38.2669 -110.4756  221.3817 C   0  0  0  0  0  0  0  0  0  0  0  0
  -37.4054 -109.4558  222.1351 C   0  0  0  0  0  0  0  0  0  0  0  0
  -36.9603 -111.6578  222.9942 C   0  0  0  0  0  0  0  0  0  0  0  0
  -38.8823 -115.1803  217.3000 C   0  0  0  0  0  0  0  0  0  0  0  0
  -40.2164 -111.5030  226.9634 C   0  0  0  0  0  0  0  0  0  0  0  0
  -39.1018 -112.5415  227.0907 C   0  0  0  0  0  0  0  0  0  0  0  0
  -38.1617 -112.2577  228.2574 C   0  0  0  0  0  0  0  0  0  0  0  0
  -39.6167 -113.9121  227.1487 N   0  0  0  0  0  0  0  0  0  0  0  0
  -40.0684 -117.0879  224.5984 N   0  0  0  0  0  0  0  0  0  0  0  0
  -40.4900 -117.0784  225.8914 C   0  0  0  0  0  0  0  0  0  0  0  0
  -40.5594 -115.5916  228.0231 C   0  0  0  0  0  0  0  0  0  0  0  0
  -38.9385 -116.0432  222.7559 N   0  0  0  0  0  0  0  0  0  0  0  0
  -38.8538 -115.0689  221.7533 C   0  0  0  0  0  0  0  0  0  0  0  0
  -39.1360 -114.1939  219.5911 C   0  0  0  0  0  0  0  0  0  0  0  0
  -38.6318 -113.0079  220.0064 N   0  0  0  0  0  0  0  0  0  0  0  0
  -38.2280 -112.8916  221.2856 C   0  0  0  0  0  0  0  0  0  0  0  0
  -38.3626 -113.8795  222.1764 N   0  0  0  0  0  0  0  0  0  0  0  0
  -37.6151 -111.7220  221.6834 N   0  0  0  0  0  0  0  0  0  0  0  0
  -37.0772 -110.1955  223.4085 C   0  0  0  0  0  0  0  0  0  0  0  0
  -35.9301 -109.7311  223.9644 F   0  0  0  0  0  0  0  0  0  0  0  0
  -38.0709 -110.0210  224.3053 F   0  0  0  0  0  0  0  0  0  0  0  0
  -39.6821 -114.2317  218.1838 C   0  0  1  0  0  0  0  0  0  0  0  0
  -38.8875 -114.5208  215.9443 C   0  0  0  0  0  0  0  0  0  0  0  0
  -38.8702 -113.1017  216.2498 N   0  0  0  0  0  0  0  0  0  0  0  0
  -39.7011 -112.9057  217.4312 C   0  0  0  0  0  0  0  0  0  0  0  0
  1  2  4  0
  2  3  4  0
  1  4  4  0
  7  8  1  0
 11 12  1  0
 12 13  1  0
  1 14  4  0
  5 14  4  0
 12 14  1  0
  3 15  4  0
 15 16  4  0
  4 16  4  0
  4 17  4  0
  5 17  4  0
  3 18  1  0
 18 19  1  0
  6 19  4  0
  6 20  4  0
 20 21  4  0
 21 22  4  0
 19 23  4  0
 22 23  4  0
 22 24  1  0
  9 24  1  0
  7 24  1  0
  9 25  1  0
  8 25  1  0
 25 26  1  0
 25 27  1  0
 10 28  1  0
 28 20  1  1
 10 29  1  0
 29 30  1  0
 28 31  1  0
 30 31  1  0
M  END
