7NUT_GLP_A_501
     RDKit          3D

 30 30  0  0  0  0  0  0  0  0999 V2000
    7.4265    8.6675  -34.6384 C   0  0  1  0  0  0  0  0  0  0  0  0
    6.4951    9.8158  -34.2821 C   0  0  1  0  0  0  0  0  0  0  0  0
    5.2664    9.3162  -33.5967 C   0  0  2  0  0  0  0  0  0  0  0  0
    4.6188    8.2170  -34.3770 C   0  0  1  0  0  0  0  0  0  0  0  0
    5.6311    7.1016  -34.6832 C   0  0  1  0  0  0  0  0  0  0  0  0
    5.0016    5.9531  -35.4208 C   0  0  0  0  0  0  0  0  0  0  0  0
    7.8197    8.0378  -33.5126 O   0  0  0  0  0  0  0  0  0  0  0  0
    7.2252   10.7393  -33.4005 N   0  0  0  0  0  0  0  0  0  0  0  0
    4.3187   10.4163  -33.4507 O   0  0  0  0  0  0  0  0  0  0  0  0
    3.5207    7.6656  -33.6500 O   0  0  0  0  0  0  0  0  0  0  0  0
    6.7151    7.6562  -35.4893 O   0  0  0  0  0  0  0  0  0  0  0  0
    5.7996    4.8182  -35.2763 O   0  0  0  0  0  0  0  0  0  0  0  0
    5.2783    3.5227  -36.1470 P   0  0  2  0  0  5  0  0  0  0  0  0
    6.0831    3.4294  -37.4628 O   0  0  0  0  0  0  0  0  0  0  0  0
    3.7923    3.7077  -36.4966 O   0  0  0  0  0  0  0  0  0  0  0  0
    5.5044    2.2874  -35.2360 O   0  0  0  0  0  0  0  0  0  0  0  0
    8.2637    9.0734  -35.1675 H   0  0  0  0  0  0  0  0  0  0  0  0
    6.1858   10.3166  -35.1753 H   0  0  0  0  0  0  0  0  0  0  0  0
    5.5482    8.9316  -32.6390 H   0  0  0  0  0  0  0  0  0  0  0  0
    4.2629    8.6336  -35.2958 H   0  0  0  0  0  0  0  0  0  0  0  0
    6.0003    6.7246  -33.7526 H   0  0  0  0  0  0  0  0  0  0  0  0
    4.9159    6.1995  -36.4584 H   0  0  0  0  0  0  0  0  0  0  0  0
    4.0284    5.7601  -35.0193 H   0  0  0  0  0  0  0  0  0  0  0  0
    7.0432    7.6802  -33.0535 H   0  0  0  0  0  0  0  0  0  0  0  0
    7.5123   10.2462  -32.5552 H   0  0  0  0  0  0  0  0  0  0  0  0
    6.6190   11.5202  -33.1490 H   0  0  0  0  0  0  0  0  0  0  0  0
    4.0753   10.7514  -34.3276 H   0  0  0  0  0  0  0  0  0  0  0  0
    3.8415    7.2874  -32.8166 H   0  0  0  0  0  0  0  0  0  0  0  0
    3.6887    4.4869  -37.0656 H   0  0  0  0  0  0  0  0  0  0  0  0
    6.4498    2.2018  -35.0363 H   0  0  0  0  0  0  0  0  0  0  0  0
  1  2  1  0
  2  3  1  0
  3  4  1  0
  4  5  1  0
  5  6  1  0
  1  7  1  0
  2  8  1  0
  3  9  1  0
  4 10  1  0
  1 11  1  0
  5 11  1  0
  6 12  1  0
 13 12  1  1
 13 14  2  0
 13 15  1  0
 13 16  1  0
  1 17  1  6
  2 18  1  6
  3 19  1  1
  4 20  1  6
  5 21  1  1
  6 22  1  0
  6 23  1  0
  7 24  1  0
  8 25  1  0
  8 26  1  0
  9 27  1  0
 10 28  1  0
 15 29  1  0
 16 30  1  0
M  END
