7OLT_58J_A_402
     RDKit          3D

 23 25  0  0  0  0  0  0  0  0999 V2000
  -30.1496  -24.5936  -13.0929 C   0  0  0  0  0  0  0  0  0  0  0  0
  -30.1931  -26.2704  -14.7491 C   0  0  0  0  0  0  0  0  0  0  0  0
  -30.4355  -26.2645  -16.0874 C   0  0  0  0  0  0  0  0  0  0  0  0
  -30.2436  -25.4614  -18.4393 C   0  0  0  0  0  0  0  0  0  0  0  0
  -29.1785  -23.0200  -17.6796 C   0  0  0  0  0  0  0  0  0  0  0  0
  -30.6608  -27.4548  -14.0062 C   0  0  0  0  0  0  0  0  0  0  0  0
  -34.0250  -25.2057  -11.5074 C   0  0  0  0  0  0  0  0  0  0  0  0
  -27.7333  -21.6991  -19.9443 C   0  0  0  0  0  0  0  0  0  0  0  0
  -30.5479  -28.5935  -14.4670 O   0  0  0  0  0  0  0  0  0  0  0  0
  -31.4101  -27.3272  -12.9046 N   0  0  0  0  0  0  0  0  0  0  0  0
  -32.0201  -26.1678  -12.4579 C   0  0  0  0  0  0  0  0  0  0  0  0
  -31.5210  -24.8797  -12.5832 C   0  0  0  0  0  0  0  0  0  0  0  0
  -33.2882  -26.3046  -11.9208 C   0  0  0  0  0  0  0  0  0  0  0  0
  -33.5060  -23.9392  -11.6359 C   0  0  0  0  0  0  0  0  0  0  0  0
  -32.2440  -23.7752  -12.1622 C   0  0  0  0  0  0  0  0  0  0  0  0
  -29.6012  -25.2663  -14.0957 N   0  0  0  0  0  0  0  0  0  0  0  0
  -28.2142  -24.9871  -14.4502 C   0  0  0  0  0  0  0  0  0  0  0  0
  -29.5065  -23.7246  -12.4794 O   0  0  0  0  0  0  0  0  0  0  0  0
  -30.0583  -25.2121  -17.0876 C   0  0  0  0  0  0  0  0  0  0  0  0
  -29.5585  -23.9555  -16.7142 C   0  0  0  0  0  0  0  0  0  0  0  0
  -29.3306  -23.3059  -19.0320 C   0  0  0  0  0  0  0  0  0  0  0  0
  -28.9792  -22.4039  -20.0020 O   0  0  0  0  0  0  0  0  0  0  0  0
  -29.8685  -24.5297  -19.4102 C   0  0  0  0  0  0  0  0  0  0  0  0
  2  3  2  0
  2  6  1  0
  6  9  2  0
  6 10  1  0
 10 11  1  0
 11 12  2  0
  1 12  1  0
  7 13  2  0
 11 13  1  0
  7 14  1  0
 14 15  2  0
 12 15  1  0
  2 16  1  0
  1 16  1  0
 16 17  1  0
  1 18  2  0
  3 19  1  0
  4 19  2  0
 19 20  1  0
  5 20  2  0
  5 21  1  0
 21 22  1  0
  8 22  1  0
  4 23  1  0
 21 23  2  0
M  END
