
     RDKit          3D

 34 38  0  0  0  0  0  0  0  0999 V2000
    6.7187    9.7323   31.0450 F   0  0  0  0  0  0  0  0  0  0  0  0
    5.8067   10.1696   30.1705 C   0  0  0  0  0  0  0  0  0  0  0  0
    4.8139    9.2903   29.7433 C   0  0  0  0  0  0  0  0  0  0  0  0
    3.8829    9.7243   28.8134 C   0  0  0  0  0  0  0  0  0  0  0  0
    2.9302    8.8799   28.3881 F   0  0  0  0  0  0  0  0  0  0  0  0
    3.9209   11.0202   28.3035 C   0  0  0  0  0  0  0  0  0  0  0  0
    4.9143   11.9009   28.7250 C   0  0  0  0  0  0  0  0  0  0  0  0
    5.8625   11.4642   29.6638 C   0  0  0  0  0  0  0  0  0  0  0  0
    7.1336   12.5552   30.2251 S   0  0  0  0  0  6  0  0  0  0  0  0
    8.3037   11.7455   30.5087 O   0  0  0  0  0  0  0  0  0  0  0  0
    7.2154   13.6622   29.2980 O   0  0  0  0  0  0  0  0  0  0  0  0
    6.5249   13.1600   31.6917 N   0  0  0  0  0  0  0  0  0  0  0  0
    6.4277   12.2254   32.7800 C   0  0  0  0  0  0  0  0  0  0  0  0
    7.5995   11.6085   33.2935 C   0  0  0  0  0  0  0  0  0  0  0  0
    7.5253   10.6375   34.3068 C   0  0  0  0  0  0  0  0  0  0  0  0
    6.2711   10.3149   34.7771 C   0  0  0  0  0  0  0  0  0  0  0  0
    5.8308    9.4054   35.7490 N   0  0  0  0  0  0  0  0  0  0  0  0
    6.6768    8.5102   36.5031 C   0  0  0  0  0  0  0  0  0  0  0  0
    6.3626    7.0487   36.2192 C   0  0  0  0  0  0  0  0  0  0  0  0
    4.4355    9.4421   35.8137 C   0  0  0  0  0  0  0  0  0  0  0  0
    3.6721    8.7913   36.4995 O   0  0  0  0  0  0  0  0  0  0  0  0
    4.0296   10.4641   34.8279 C   0  0  0  0  0  0  0  0  0  0  0  0
    2.8014   10.9410   34.4321 C   0  0  0  0  0  0  0  0  0  0  0  0
    5.1680   10.9353   34.2532 C   0  0  0  0  0  0  0  0  0  0  0  0
    5.1507   11.8891   33.2641 C   0  0  0  0  0  0  0  0  0  0  0  0
    3.9475   12.3726   32.8548 N   0  0  0  0  0  0  0  0  0  0  0  0
    2.7816   11.9190   33.4280 C   0  0  0  0  0  0  0  0  0  0  0  0
    1.5992   12.4529   32.9610 N   0  0  0  0  0  0  0  0  0  0  0  0
    1.4914   13.2105   31.7028 C   0  0  0  0  0  0  0  0  0  0  0  0
    0.1905   14.0476   31.6792 C   0  0  0  0  0  0  0  0  0  0  0  0
   -1.0485   13.2518   31.8043 N   0  0  0  0  0  0  0  0  0  0  0  0
   -2.1219   14.0583   32.3843 C   0  0  0  0  0  0  0  0  0  0  0  0
   -0.8236   12.0040   32.5668 C   0  0  0  0  0  0  0  0  0  0  0  0
    0.3321   12.0432   33.5949 C   0  0  0  0  0  0  0  0  0  0  0  0
  1  2  1  0
  2  3  4  0
  3  4  4  0
  4  5  1  0
  4  6  4  0
  6  7  4  0
  2  8  4  0
  7  8  4  0
  8  9  1  0
  9 10  2  0
  9 11  2  0
  9 12  1  0
 12 13  1  0
 13 14  4  0
 14 15  4  0
 15 16  4  0
 16 17  1  0
 17 18  1  0
 18 19  1  0
 17 20  1  0
 20 21  2  0
 20 22  1  0
 22 23  4  0
 16 24  4  0
 22 24  4  0
 13 25  4  0
 24 25  4  0
 25 26  4  0
 26 27  4  0
 23 27  4  0
 27 28  1  0
 28 29  1  0
 29 30  1  0
 30 31  1  0
 31 32  1  0
 31 33  1  0
 33 34  1  0
 28 34  1  0
M  END
