7LEV_0JO_B_406
     RDKit          3D

 21 21  0  0  0  0  0  0  0  0999 V2000
   27.2948    6.9291   24.5673 O   0  0  0  0  0  0  0  0  0  0  0  0
   26.1565    7.0364   25.0940 C   0  0  0  0  0  0  0  0  0  0  0  0
   25.6775    8.1771   25.3292 O   0  0  0  0  0  0  0  0  0  0  0  0
   25.3572    5.7836   25.4493 C   0  0  0  0  0  0  0  0  0  0  0  0
   25.4137    5.2917   26.6710 C   0  0  0  0  0  0  0  0  0  0  0  0
   24.5366    5.1353   24.4426 N   0  0  0  0  0  0  0  0  0  0  0  0
   23.4776    4.5601   24.7763 C   0  0  0  0  0  0  0  0  0  0  0  0
   22.6128    3.8765   23.7193 C   0  0  0  0  0  0  0  0  0  0  0  0
   23.1658    3.4700   22.5498 C   0  0  0  0  0  0  0  0  0  0  0  0
   24.5308    3.6757   22.3097 O   0  0  0  0  0  0  0  0  0  0  0  0
   22.3811    2.8505   21.5915 C   0  0  0  0  0  0  0  0  0  0  0  0
   23.0034    2.3927   20.2746 C   0  0  0  0  0  0  0  0  0  0  0  0
   21.0636    2.6511   21.8215 N   0  0  0  0  0  0  0  0  0  0  0  0
   20.5097    3.0563   22.9876 C   0  0  0  0  0  0  0  0  0  0  0  0
   21.2924    3.6763   23.9488 C   0  0  0  0  0  0  0  0  0  0  0  0
   20.6658    4.1327   25.2665 C   0  0  0  0  0  0  0  0  0  0  0  0
   19.3727    4.6082   25.0274 O   0  0  0  0  0  0  0  0  0  0  0  0
   18.5969    4.1183   23.6572 P   0  0  1  0  0  0  0  0  0  0  0  0
   17.4118    5.0185   23.4020 O   0  0  0  0  0  0  0  0  0  0  0  0
   19.5467    4.1939   22.4864 O   0  0  0  0  0  0  0  0  0  0  0  0
   18.1205    2.6945   23.8281 O   0  0  0  0  0  0  0  0  0  0  0  0
  1  2  2  0
  2  3  1  0
  2  4  1  0
  4  5  2  0
  4  6  1  0
  6  7  2  0
  7  8  1  0
  8  9  2  0
  9 10  1  0
  9 11  1  0
 11 12  1  0
 11 13  2  0
 13 14  1  0
  8 15  1  0
 14 15  2  0
 15 16  1  0
 16 17  1  0
 17 18  1  0
 18 19  2  0
 18 20  1  6
 18 21  1  0
M  END
