
     RDKit          3D

 21 20  0  0  0  0  0  0  0  0999 V2000
    1.6805    1.5226   44.9015 N   0  0  0  0  0  0  0  0  0  0  0  0
    6.0038    0.8359   44.3366 P   0  0  0  0  0  5  0  0  0  0  0  0
    7.1286    1.7630   44.6339 O   0  0  0  0  0  0  0  0  0  0  0  0
    5.8147    0.3661   42.8269 O   0  0  0  0  0  0  0  0  0  0  0  0
    6.2868   -0.5938   45.0008 O   0  0  0  0  0  0  0  0  0  0  0  0
    4.5522    1.1927   44.8950 O   0  0  0  0  0  0  0  0  0  0  0  0
    3.9944    2.4728   44.5615 C   0  0  1  0  0  0  0  0  0  0  0  0
    2.4847    1.5760   42.6205 C   0  0  0  0  0  0  0  0  0  0  0  0
    1.7682    0.4415   42.5780 O   0  0  0  0  0  0  0  0  0  0  0  0
    3.0111    1.9971   41.5972 O   0  0  0  0  0  0  0  0  0  0  0  0
    2.5761    2.2565   43.9905 C   0  0  1  0  0  0  0  0  0  0  0  0
    3.9898    3.2512   45.8782 C   0  0  0  0  0  0  0  0  0  0  0  0
    0.4239    3.3646   45.4152 O   0  0  0  0  0  0  0  0  0  0  0  0
    0.6309    2.1624   45.5283 C   0  0  0  0  0  0  0  0  0  0  0  0
   -0.2021    1.2353   46.3906 C   0  0  0  0  0  0  0  0  0  0  0  0
   -1.5594    1.8474   46.7332 C   0  0  0  0  0  0  0  0  0  0  0  0
   -2.1284    1.2592   48.0218 C   0  0  0  0  0  0  0  0  0  0  0  0
   -1.2247    1.4402   49.2467 C   0  0  0  0  0  0  0  0  0  0  0  0
   -1.9601    1.4660   50.5929 C   0  0  0  0  0  0  0  0  0  0  0  0
   -3.1290    2.4495   50.6157 C   0  0  0  0  0  0  0  0  0  0  0  0
   -2.7433    3.8596   51.6953 S   0  0  0  0  0  0  0  0  0  0  0  0
  2  3  2  0
  2  4  1  0
  2  5  1  0
  2  6  1  0
  6  7  1  0
  8  9  1  0
  8 10  2  0
 11  1  1  1
  7 11  1  0
  8 11  1  0
  7 12  1  1
  1 14  1  0
 13 14  2  0
 14 15  1  0
 15 16  1  0
 16 17  1  0
 17 18  1  0
 18 19  1  0
 19 20  1  0
 20 21  1  0
M  END
