7V3N_AKG_A_1403
     RDKit          3D

 10  9  0  0  0  0  0  0  0  0999 V2000
  127.6544   76.9218   -0.5733 C   0  0  0  0  0  0  0  0  0  0  0  0
  128.8812   76.6812   -0.6167 O   0  0  0  0  0  0  0  0  0  0  0  0
  126.9070   76.2787    0.1894 O   0  0  0  0  0  0  0  0  0  0  0  0
  127.1094   77.9726   -1.4269 C   0  0  0  0  0  0  0  0  0  0  0  0
  125.9134   78.0612   -1.6665 O   0  0  0  0  0  0  0  0  0  0  0  0
  128.0605   78.9702   -2.0413 C   0  0  0  0  0  0  0  0  0  0  0  0
  127.2682   79.8861   -2.9514 C   0  0  0  0  0  0  0  0  0  0  0  0
  128.1264   81.0220   -3.4532 C   0  0  0  0  0  0  0  0  0  0  0  0
  127.5835   81.8850   -4.1767 O   0  0  0  0  0  0  0  0  0  0  0  0
  129.3440   81.0422   -3.1693 O   0  0  0  0  0  0  0  0  0  0  0  0
  1  2  2  0
  1  3  1  0
  1  4  1  0
  4  5  2  0
  4  6  1  0
  6  7  1  0
  7  8  1  0
  8  9  2  0
  8 10  1  0
M  END
