1OQ5_CEL_A_701
     RDKit          3D

 40 42  0  0  0  0  0  0  0  0999 V2000
   15.0778    2.8932   16.9123 S   0  0  2  0  0  6  0  0  0  0  0  0
   15.7078    4.2181   15.8915 C   0  0  0  0  0  0  0  0  0  0  0  0
   14.9191    5.3052   15.5932 C   0  0  0  0  0  0  0  0  0  0  0  0
   15.4488    6.3666   14.8736 C   0  0  0  0  0  0  0  0  0  0  0  0
   16.7594    6.3068   14.4862 C   0  0  0  0  0  0  0  0  0  0  0  0
   17.5579    5.2170   14.7777 C   0  0  0  0  0  0  0  0  0  0  0  0
   17.0272    4.1406   15.4979 C   0  0  0  0  0  0  0  0  0  0  0  0
   17.3230    7.4761   13.8249 N   0  0  0  0  0  4  0  0  0  0  0  0
   17.1601    8.0491   12.5931 C   0  0  0  0  0  0  0  0  0  0  0  0
   16.4489    7.5717   11.4134 C   0  0  0  0  0  0  0  0  0  0  0  0
   15.0643    7.6415   11.4220 C   0  0  0  0  0  0  0  0  0  0  0  0
   14.3402    7.1734   10.3518 C   0  0  0  0  0  0  0  0  0  0  0  0
   14.9845    6.6800    9.2404 C   0  0  0  0  0  0  0  0  0  0  0  0
   14.1733    6.1661    8.0794 C   0  0  0  0  0  0  0  0  0  0  0  0
   16.3740    6.6835    9.1937 C   0  0  0  0  0  0  0  0  0  0  0  0
   17.0877    7.0950   10.2880 C   0  0  0  0  0  0  0  0  0  0  0  0
   17.9608    9.1865   12.5732 C   0  0  0  0  0  0  0  0  0  0  0  0
   18.4903    9.2598   13.8578 C   0  0  0  0  0  0  0  0  0  0  0  0
   19.3669   10.3250   14.4164 C   0  0  2  0  0  0  0  0  0  0  0  0
   19.8221   10.0822   15.6181 F   0  0  0  0  0  0  0  0  0  0  0  0
   18.8325   11.5411   14.3884 F   0  0  0  0  0  0  0  0  0  0  0  0
   20.4392   10.4561   13.6433 F   0  0  0  0  0  0  0  0  0  0  0  0
   18.1116    8.2394   14.6041 N   0  0  0  0  0  0  0  0  0  0  0  0
   15.6446    1.5197   16.3459 N   0  0  0  0  0  0  0  0  0  0  0  0
   13.6751    2.8975   16.8092 O   0  0  0  0  0  0  0  0  0  0  0  0
   15.6178    3.1514   18.2238 O   0  0  0  0  0  0  0  0  0  0  0  0
   13.9362    5.3318   15.9035 H   0  0  0  0  0  0  0  0  0  0  0  0
   14.8662    7.1855   14.6351 H   0  0  0  0  0  0  0  0  0  0  0  0
   18.5405    5.1963   14.4662 H   0  0  0  0  0  0  0  0  0  0  0  0
   17.6042    3.3152   15.7274 H   0  0  0  0  0  0  0  0  0  0  0  0
   14.5752    8.0465   12.2353 H   0  0  0  0  0  0  0  0  0  0  0  0
   13.3088    7.1920   10.3819 H   0  0  0  0  0  0  0  0  0  0  0  0
   13.1312    6.2471    8.3086 H   0  0  0  0  0  0  0  0  0  0  0  0
   14.4189    5.1401    7.8968 H   0  0  0  0  0  0  0  0  0  0  0  0
   14.3939    6.7462    7.2085 H   0  0  0  0  0  0  0  0  0  0  0  0
   16.8653    6.3778    8.3394 H   0  0  0  0  0  0  0  0  0  0  0  0
   18.1185    7.0476   10.2698 H   0  0  0  0  0  0  0  0  0  0  0  0
   18.1246    9.8308   11.7826 H   0  0  0  0  0  0  0  0  0  0  0  0
   15.2562    1.3479   15.4191 H   0  0  0  0  0  0  0  0  0  0  0  0
   15.3796    0.7578   16.9700 H   0  0  0  0  0  0  0  0  0  0  0  0
  1  2  1  0
  2  3  4  0
  3  4  4  0
  4  5  4  0
  5  6  4  0
  2  7  4  0
  6  7  4  0
  5  8  1  0
  8  9  4  0
  9 10  1  0
 10 11  4  0
 11 12  4  0
 12 13  4  0
 13 14  1  0
 13 15  4  0
 10 16  4  0
 15 16  4  0
  9 17  4  0
 17 18  4  0
 18 19  1  0
 19 20  1  1
 19 21  1  0
 19 22  1  0
  8 23  4  0
 18 23  4  0
  1 24  1  6
  1 25  2  0
  1 26  2  0
  3 27  1  0
  4 28  1  0
  6 29  1  0
  7 30  1  0
 11 31  1  0
 12 32  1  0
 14 33  1  0
 14 34  1  0
 14 35  1  0
 15 36  1  0
 16 37  1  0
 17 38  1  0
 24 39  1  0
 24 40  1  0
M  CHG  1   8   1
M  END
