1SQN_NDR_B_2001
     RDKit          3D

 48 51  0  0  0  0  0  0  0  0999 V2000
   13.8119   26.9793    3.1319 O   0  0  0  0  0  0  0  0  0  0  0  0
   13.3978   26.5641    4.1595 C   0  0  0  0  0  0  0  0  0  0  0  0
   14.2852   26.3752    5.3813 C   0  0  0  0  0  0  0  0  0  0  0  0
   11.9705   26.1472    4.1712 C   0  0  0  0  0  0  0  0  0  0  0  0
   11.4743   25.7224    5.4501 C   0  0  0  0  0  0  0  0  0  0  0  0
   10.0183   25.1981    5.4175 C   0  0  0  0  0  0  0  0  0  0  0  0
   12.1086   25.7728    6.7067 C   0  0  1  0  0  0  0  0  0  0  0  0
   13.4450   26.5761    6.6873 C   0  0  0  0  0  0  0  0  0  0  0  0
   11.2787   25.9961    7.8650 C   0  0  1  0  0  0  0  0  0  0  0  0
    9.9582   25.4870    7.9844 C   0  0  2  0  0  0  0  0  0  0  0  0
    9.1501   25.5589    6.6552 C   0  0  0  0  0  0  0  0  0  0  0  0
   12.0369   26.1763    9.2073 C   0  0  0  0  0  0  0  0  0  0  0  0
   11.1131   26.5491   10.3978 C   0  0  0  0  0  0  0  0  0  0  0  0
    9.8377   25.6961   10.5405 C   0  0  1  0  0  0  0  0  0  0  0  0
    9.1802   25.7012    9.1684 C   0  0  2  0  0  0  0  0  0  0  0  0
   10.2395   24.2193   10.9046 C   0  0  0  0  0  0  0  0  0  0  0  0
    8.7093   26.1355   11.4672 C   0  0  2  0  0  0  0  0  0  0  0  0
    8.8526   25.8218   12.8563 O   0  0  0  0  0  0  0  0  0  0  0  0
    7.4521   25.4797   10.8724 C   0  0  0  0  0  0  0  0  0  0  0  0
    7.7422   25.2579    9.3708 C   0  0  0  0  0  0  0  0  0  0  0  0
    8.5047   27.6104   11.3618 C   0  0  0  0  0  0  0  0  0  0  0  0
    8.1896   28.8423   11.2499 C   0  0  0  0  0  0  0  0  0  0  0  0
   14.6957   25.3871    5.3721 H   0  0  0  0  0  0  0  0  0  0  0  0
   15.0757   27.0960    5.3570 H   0  0  0  0  0  0  0  0  0  0  0  0
   11.3810   26.1621    3.3243 H   0  0  0  0  0  0  0  0  0  0  0  0
    9.5410   25.6039    4.5502 H   0  0  0  0  0  0  0  0  0  0  0  0
   10.0903   24.1305    5.4099 H   0  0  0  0  0  0  0  0  0  0  0  0
   12.3804   24.7508    6.8703 H   0  0  0  0  0  0  0  0  0  0  0  0
   14.0382   26.2638    7.5212 H   0  0  0  0  0  0  0  0  0  0  0  0
   13.1857   27.6131    6.7342 H   0  0  0  0  0  0  0  0  0  0  0  0
   10.9554   26.9535    7.5135 H   0  0  0  0  0  0  0  0  0  0  0  0
   10.2016   24.4655    8.1897 H   0  0  0  0  0  0  0  0  0  0  0  0
    8.7746   26.5535    6.5341 H   0  0  0  0  0  0  0  0  0  0  0  0
    8.3546   24.8460    6.7165 H   0  0  0  0  0  0  0  0  0  0  0  0
   12.5350   25.2585    9.4402 H   0  0  0  0  0  0  0  0  0  0  0  0
   12.7208   26.9885    9.0747 H   0  0  0  0  0  0  0  0  0  0  0  0
   11.6802   26.4475   11.2994 H   0  0  0  0  0  0  0  0  0  0  0  0
   10.7788   27.5478   10.2086 H   0  0  0  0  0  0  0  0  0  0  0  0
    9.1193   26.6682    8.7146 H   0  0  0  0  0  0  0  0  0  0  0  0
   11.0315   23.8963   10.2616 H   0  0  0  0  0  0  0  0  0  0  0  0
   10.5674   24.1796   11.9223 H   0  0  0  0  0  0  0  0  0  0  0  0
    9.3928   23.5775   10.7774 H   0  0  0  0  0  0  0  0  0  0  0  0
    8.9876   24.8669   12.9598 H   0  0  0  0  0  0  0  0  0  0  0  0
    7.2601   24.5437   11.3540 H   0  0  0  0  0  0  0  0  0  0  0  0
    6.5899   26.0976   11.0130 H   0  0  0  0  0  0  0  0  0  0  0  0
    7.0808   25.8471    8.7707 H   0  0  0  0  0  0  0  0  0  0  0  0
    7.5961   24.2375    9.0837 H   0  0  0  0  0  0  0  0  0  0  0  0
    7.9442   29.8016   11.1628 H   0  0  0  0  0  0  0  0  0  0  0  0
  1  2  2  0
  2  3  1  0
  2  4  1  0
  4  5  2  0
  5  6  1  0
  5  7  1  0
  3  8  1  0
  7  8  1  0
  7  9  1  0
  9 10  1  0
  6 11  1  0
 10 11  1  0
  9 12  1  0
 12 13  1  0
 13 14  1  0
 10 15  1  0
 14 15  1  0
 14 16  1  6
 14 17  1  0
 17 18  1  0
 17 19  1  0
 15 20  1  0
 19 20  1  0
 17 21  1  6
 21 22  3  0
  3 23  1  0
  3 24  1  0
  4 25  1  0
  6 26  1  0
  6 27  1  0
  7 28  1  6
  8 29  1  0
  8 30  1  0
  9 31  1  1
 10 32  1  6
 11 33  1  0
 11 34  1  0
 12 35  1  0
 12 36  1  0
 13 37  1  0
 13 38  1  0
 15 39  1  1
 16 40  1  0
 16 41  1  0
 16 42  1  0
 18 43  1  0
 19 44  1  0
 19 45  1  0
 20 46  1  0
 20 47  1  0
 22 48  1  0
M  END
