7UXS_OJC_B_501
     RDKit          3D

 56 60  0  0  0  0  0  0  0  0999 V2000
  -12.9176   25.7824  -25.4090 N   0  0  0  0  0  0  0  0  0  0  0  0
  -12.2814   24.9648  -24.5095 C   0  0  0  0  0  0  0  0  0  0  0  0
  -10.7059   25.7588  -20.8536 O   0  0  0  0  0  0  0  0  0  0  0  0
  -12.9083   27.1418  -25.2657 C   0  0  0  0  0  0  0  0  0  0  0  0
  -12.2276   27.6700  -24.1744 C   0  0  0  0  0  0  0  0  0  0  0  0
  -11.6056   26.8440  -23.3028 C   0  0  0  0  0  0  0  0  0  0  0  0
  -13.3261   26.8920  -14.5276 C   0  0  2  0  0  0  0  0  0  0  0  0
  -13.3016   28.2862  -15.1865 C   0  0  2  0  0  0  0  0  0  0  0  0
  -14.4634   28.4962  -16.1500 C   0  0  2  0  0  0  0  0  0  0  0  0
  -13.8490   28.0997  -17.4722 C   0  0  2  0  0  0  0  0  0  0  0  0
  -12.3349   28.3264  -17.2676 C   0  0  1  0  0  0  0  0  0  0  0  0
  -11.3575   28.8471  -22.6467 C   0  0  0  0  0  0  0  0  0  0  0  0
  -10.3495   27.1038  -21.1200 C   0  0  2  0  0  0  0  0  0  0  0  0
  -10.7345   27.9820  -19.9154 C   0  0  1  0  0  0  0  0  0  0  0  0
  -11.6194   27.0561  -19.1189 C   0  0  1  0  0  0  0  0  0  0  0  0
  -11.0418   25.7040  -19.4897 C   0  0  1  0  0  0  0  0  0  0  0  0
  -12.0224   24.5660  -19.1950 C   0  0  1  0  0  0  0  0  0  0  0  0
  -11.6168   25.4959  -23.4397 N   0  0  0  0  0  0  0  0  0  0  0  0
  -11.0341   27.5668  -22.3293 N   0  0  0  0  0  0  0  0  0  0  0  0
  -12.0921   28.9527  -23.7888 N   0  0  0  0  0  0  0  0  0  0  0  0
  -13.5830   27.9764  -26.2073 N   0  0  0  0  0  0  0  0  0  0  0  0
  -12.1622   24.4608  -17.7960 O   0  0  0  0  0  0  0  0  0  0  0  0
  -14.3778   28.8182  -18.5635 O   0  0  0  0  0  0  0  0  0  0  0  0
  -14.8351   29.8521  -16.1396 O   0  0  0  0  0  0  0  0  0  0  0  0
   -9.5927   28.3303  -19.1742 O   0  0  0  0  0  0  0  0  0  0  0  0
  -13.3281   22.1353  -18.2014 O   0  0  0  0  0  0  0  0  0  0  0  0
  -14.9276   24.1767  -17.8702 O   0  0  0  0  0  0  0  0  0  0  0  0
  -13.4330   23.0727  -15.7698 O   0  0  0  0  0  0  0  0  0  0  0  0
  -13.6423   24.2506  -13.4585 O   0  0  0  0  0  0  0  0  0  0  0  0
  -15.6625   24.5494  -15.0838 O   0  0  0  0  0  0  0  0  0  0  0  0
  -13.2399   25.8745  -15.5066 O   0  0  0  0  0  0  0  0  0  0  0  0
  -12.0904   28.4856  -15.8843 O   0  0  0  0  0  0  0  0  0  0  0  0
  -11.5472   27.2372  -17.7150 O   0  0  0  0  0  0  0  0  0  0  0  0
  -13.4693   23.4314  -17.4335 P   0  0  2  0  0  5  0  0  0  0  0  0
  -13.9787   24.4450  -14.9210 P   0  0  2  0  0  5  0  0  0  0  0  0
  -12.3071   23.8926  -24.6465 H   0  0  0  0  0  0  0  0  0  0  0  0
  -14.2551   26.8362  -13.9135 H   0  0  0  0  0  0  0  0  0  0  0  0
  -12.4564   26.8062  -13.8405 H   0  0  0  0  0  0  0  0  0  0  0  0
  -13.3604   29.0377  -14.3680 H   0  0  0  0  0  0  0  0  0  0  0  0
  -15.3381   27.8510  -15.8959 H   0  0  0  0  0  0  0  0  0  0  0  0
  -14.0531   27.0190  -17.6380 H   0  0  0  0  0  0  0  0  0  0  0  0
  -12.0019   29.2638  -17.7667 H   0  0  0  0  0  0  0  0  0  0  0  0
  -11.0758   29.7015  -22.0449 H   0  0  0  0  0  0  0  0  0  0  0  0
   -9.2504   27.1451  -21.2921 H   0  0  0  0  0  0  0  0  0  0  0  0
  -11.2996   28.8972  -20.2122 H   0  0  0  0  0  0  0  0  0  0  0  0
  -12.6573   27.1180  -19.5140 H   0  0  0  0  0  0  0  0  0  0  0  0
  -10.1073   25.5169  -18.9090 H   0  0  0  0  0  0  0  0  0  0  0  0
  -12.9930   24.7786  -19.7010 H   0  0  0  0  0  0  0  0  0  0  0  0
  -11.5987   23.6210  -19.6013 H   0  0  0  0  0  0  0  0  0  0  0  0
  -14.4339   28.5168  -25.9342 H   0  0  0  0  0  0  0  0  0  0  0  0
  -13.2283   28.0556  -27.1861 H   0  0  0  0  0  0  0  0  0  0  0  0
  -14.0144   29.7415  -18.5404 H   0  0  0  0  0  0  0  0  0  0  0  0
  -14.5649   30.2160  -15.2561 H   0  0  0  0  0  0  0  0  0  0  0  0
   -9.0111   28.8530  -19.7856 H   0  0  0  0  0  0  0  0  0  0  0  0
  -15.5667   23.9202  -17.1584 H   0  0  0  0  0  0  0  0  0  0  0  0
  -15.8969   25.4746  -14.8240 H   0  0  0  0  0  0  0  0  0  0  0  0
  1  2  2  0
  1  4  1  0
  4  5  2  0
  5  6  1  0
  8  7  1  0
  8  9  1  0
  9 10  1  0
 10 11  1  0
  3 13  1  0
 13 14  1  0
 14 15  1  0
  3 16  1  0
 15 16  1  0
 16 17  1  0
  2 18  1  0
  6 18  2  0
  6 19  1  0
 12 19  1  0
 13 19  1  0
  5 20  1  0
 12 20  2  0
  4 21  1  0
 17 22  1  0
 10 23  1  0
  9 24  1  0
 14 25  1  0
  7 31  1  0
 11 32  1  0
  8 32  1  0
 15 33  1  0
 11 33  1  0
 28 34  1  0
 22 34  1  0
 34 27  1  6
 26 34  2  0
 35 30  1  1
 28 35  1  0
 31 35  1  0
 29 35  2  0
  2 36  1  0
  7 37  1  1
  7 38  1  0
  8 39  1  1
  9 40  1  1
 10 41  1  6
 11 42  1  6
 12 43  1  0
 13 44  1  6
 14 45  1  6
 15 46  1  6
 16 47  1  1
 17 48  1  6
 17 49  1  0
 21 50  1  0
 21 51  1  0
 23 52  1  0
 24 53  1  0
 25 54  1  0
 27 55  1  0
 30 56  1  0
M  END
