7RWS_4UR_A_401
     RDKit          3D

 45 51  0  0  0  0  0  0  0  0999 V2000
   18.2159   52.8656   41.6679 C   0  0  2  0  0  0  0  0  0  0  0  0
   19.1436   52.6142   42.8802 C   0  0  0  0  0  0  0  0  0  0  0  0
   16.5680   54.2599   46.2041 C   0  0  1  0  0  0  0  0  0  0  0  0
   11.6607   54.5132   49.0719 N   0  0  0  0  0  0  0  0  0  0  0  0
   12.6288   55.5639   49.4004 C   0  0  0  0  0  0  0  0  0  0  0  0
   13.8549   55.6364   48.6605 N   0  0  0  0  0  0  0  0  0  0  0  0
   14.8315   56.7066   48.9854 C   0  0  0  0  0  0  0  0  0  0  0  0
   14.6360   57.6384   49.9630 C   0  0  0  0  0  0  0  0  0  0  0  0
   15.7188   58.4258   49.9770 N   0  0  0  0  0  0  0  0  0  0  0  0
   16.5648   57.9714   49.0105 C   0  0  0  0  0  0  0  0  0  0  0  0
   15.9690   56.9042   48.4093 N   0  0  0  0  0  0  0  0  0  0  0  0
   16.7631   56.3322   47.3941 C   0  0  2  0  0  0  0  0  0  0  0  0
   16.0847   56.5883   46.1457 O   0  0  0  0  0  0  0  0  0  0  0  0
   15.9647   55.3526   45.4166 C   0  0  2  0  0  0  0  0  0  0  0  0
   14.4544   55.1539   45.0862 C   0  0  0  0  0  0  0  0  0  0  0  0
   14.1949   53.7629   44.8148 O   0  0  0  0  0  0  0  0  0  0  0  0
   13.5145   53.5243   43.2655 P   0  0  1  0  0  0  0  0  0  0  0  0
   13.1812   52.0596   43.2384 O   0  0  0  0  0  0  0  0  0  0  0  0
   12.3495   54.3865   42.8243 O   0  0  0  0  0  0  0  0  0  0  0  0
   14.8274   53.8126   42.1921 O   0  0  0  0  0  0  0  0  0  0  0  0
   16.0133   53.0192   42.4242 C   0  0  2  0  0  0  0  0  0  0  0  0
   17.1598   53.8630   42.0434 C   0  0  2  0  0  0  0  0  0  0  0  0
   16.8827   54.6346   40.8703 O   0  0  0  0  0  0  0  0  0  0  0  0
   18.3072   52.1261   44.0323 O   0  0  0  0  0  0  0  0  0  0  0  0
   18.6459   52.6362   45.5825 P   0  0  2  0  0  0  0  0  0  0  0  0
   20.1387   52.9157   45.6866 O   0  0  0  0  0  0  0  0  0  0  0  0
   18.1540   51.6827   46.6521 O   0  0  0  0  0  0  0  0  0  0  0  0
   17.9346   54.1715   45.6720 O   0  0  0  0  0  0  0  0  0  0  0  0
   16.5865   54.8112   47.5687 C   0  0  2  0  0  0  0  0  0  0  0  0
   17.5889   54.2481   48.3924 O   0  0  0  0  0  0  0  0  0  0  0  0
   17.5293   51.7034   41.3131 O   0  0  0  0  0  0  0  0  0  0  0  0
   16.0918   51.8706   41.4532 C   0  0  1  0  0  0  0  0  0  0  0  0
   15.6230   50.6115   41.9629 N   0  0  0  0  0  0  0  0  0  0  0  0
   15.9813   49.9133   43.0591 C   0  0  0  0  0  0  0  0  0  0  0  0
   15.2802   48.7697   43.0683 N   0  0  0  0  0  0  0  0  0  0  0  0
   14.5017   48.7595   41.9696 C   0  0  0  0  0  0  0  0  0  0  0  0
   13.6105   47.8235   41.5223 C   0  0  0  0  0  0  0  0  0  0  0  0
   13.1557   46.5407   42.0152 N   0  0  0  0  0  0  0  0  0  0  0  0
   12.9370   48.0126   40.3867 N   0  0  0  0  0  0  0  0  0  0  0  0
   13.1401   49.1562   39.6725 C   0  0  0  0  0  0  0  0  0  0  0  0
   14.0322   50.0887   40.1225 N   0  0  0  0  0  0  0  0  0  0  0  0
   14.7091   49.8873   41.2728 C   0  0  0  0  0  0  0  0  0  0  0  0
   13.3251   57.5550   50.7596 C   0  0  0  0  0  0  0  0  0  0  0  0
   13.0648   58.3232   51.6334 O   0  0  0  0  0  0  0  0  0  0  0  0
   12.3835   56.5274   50.4500 N   0  0  0  0  0  0  0  0  0  0  0  0
  1  2  1  1
  4  5  1  0
  5  6  2  0
  6  7  1  0
  7  8  2  0
  8  9  1  0
  9 10  2  0
  7 11  1  0
 10 11  1  0
 12 11  1  1
 12 13  1  0
  3 14  1  0
 13 14  1  0
 14 15  1  1
 15 16  1  0
 16 17  1  0
 17 18  2  0
 17 19  1  6
 17 20  1  0
 21 20  1  6
  1 22  1  0
 21 22  1  0
 22 23  1  6
  2 24  1  0
 24 25  1  0
 25 26  2  0
 25 27  1  1
 25 28  1  0
  3 28  1  6
  3 29  1  0
 12 29  1  0
 29 30  1  1
  1 31  1  0
 31 32  1  0
 21 32  1  0
 32 33  1  1
 33 34  1  0
 34 35  2  0
 35 36  1  0
 36 37  2  0
 37 38  1  0
 37 39  1  0
 39 40  2  0
 40 41  1  0
 36 42  1  0
 33 42  1  0
 41 42  2  0
  8 43  1  0
 43 44  2  0
  5 45  1  0
 43 45  1  0
M  END
