7OZ9_NGK_BBB_602
     RDKit          3D

 19 19  0  0  0  0  0  0  0  0999 V2000
   34.9570   37.7610   30.5770 C   0  0  1  0  0  0  0  0  0  0  0  0
   34.2810   37.7740   31.9530 C   0  0  1  0  0  0  0  0  0  0  0  0
   33.6170   39.1230   32.2330 C   0  0  2  0  0  0  0  0  0  0  0  0
   34.6030   40.2650   31.9990 C   0  0  2  0  0  0  0  0  0  0  0  0
   35.1960   40.1510   30.5990 C   0  0  1  0  0  0  0  0  0  0  0  0
   36.2370   41.2090   30.3210 C   0  0  0  0  0  0  0  0  0  0  0  0
   33.4020   35.7920   33.0860 C   0  0  0  0  0  0  0  0  0  0  0  0
   32.4530   34.6350   32.9920 C   0  0  0  0  0  0  0  0  0  0  0  0
   33.3450   36.6740   32.0820 N   0  0  0  0  0  0  0  0  0  0  0  0
   33.9820   37.7760   29.5730 O   0  0  0  0  0  0  0  0  0  0  0  0
   33.1410   39.2010   33.5690 O   0  0  0  0  0  0  0  0  0  0  0  0
   35.6650   40.1760   33.0280 O   0  0  0  0  0  0  0  0  0  0  0  0
   35.8380   38.8690   30.4260 O   0  0  0  0  0  0  0  0  0  0  0  0
   36.5310   41.2770   28.9270 O   0  0  0  0  0  0  0  0  0  0  0  0
   34.1940   35.9170   34.0200 O   0  0  0  0  0  0  0  0  0  0  0  0
   35.7890   41.3310   34.1280 S   0  0  0  0  0  0  0  0  0  0  0  0
   36.0490   42.5480   33.4230 O   0  0  0  0  0  0  0  0  0  0  0  0
   36.8770   40.9080   34.9680 O   0  0  0  0  0  0  0  0  0  0  0  0
   34.5160   41.3540   34.8130 O   0  0  0  0  0  0  0  0  0  0  0  0
  1  2  1  0
  2  3  1  0
  3  4  1  0
  4  5  1  0
  5  6  1  1
  7  8  1  0
  2  9  1  6
  7  9  1  0
  1 10  1  6
  3 11  1  1
  4 12  1  1
  1 13  1  0
  5 13  1  0
  6 14  1  0
  7 15  2  0
 12 16  1  0
 16 17  2  0
 16 18  1  0
 16 19  2  0
M  END
$$$$
7OZ9_NGK_AAA_602
     RDKit          3D

 19 19  0  0  0  0  0  0  0  0999 V2000
   54.0400   53.8210  105.5240 C   0  0  1  0  0  0  0  0  0  0  0  0
   53.3260   53.9040  104.1680 C   0  0  1  0  0  0  0  0  0  0  0  0
   52.6050   52.5910  103.8500 C   0  0  2  0  0  0  0  0  0  0  0  0
   53.5510   51.4080  104.0420 C   0  0  2  0  0  0  0  0  0  0  0  0
   54.1880   51.4380  105.4310 C   0  0  1  0  0  0  0  0  0  0  0  0
   55.1950   50.3260  105.6260 C   0  0  0  0  0  0  0  0  0  0  0  0
   52.4160   55.9170  103.1160 C   0  0  0  0  0  0  0  0  0  0  0  0
   51.4490   57.0500  103.2670 C   0  0  0  0  0  0  0  0  0  0  0  0
   52.4190   55.0310  104.1110 N   0  0  0  0  0  0  0  0  0  0  0  0
   53.0920   53.7820  106.5480 O   0  0  0  0  0  0  0  0  0  0  0  0
   52.1090   52.5970  102.5150 O   0  0  0  0  0  0  0  0  0  0  0  0
   54.6100   51.5080  103.0170 O   0  0  0  0  0  0  0  0  0  0  0  0
   54.8900   52.6860  105.6280 O   0  0  0  0  0  0  0  0  0  0  0  0
   55.5560   50.1730  106.9980 O   0  0  0  0  0  0  0  0  0  0  0  0
   53.1620   55.8140  102.1430 O   0  0  0  0  0  0  0  0  0  0  0  0
   54.7260   50.3860  101.8850 S   0  0  0  0  0  0  0  0  0  0  0  0
   53.4380   50.3510  101.2430 O   0  0  0  0  0  0  0  0  0  0  0  0
   55.0230   49.1770  102.6320 O   0  0  0  0  0  0  0  0  0  0  0  0
   55.8080   50.7670  101.0130 O   0  0  0  0  0  0  0  0  0  0  0  0
  1  2  1  0
  2  3  1  0
  3  4  1  0
  4  5  1  0
  5  6  1  6
  7  8  1  0
  2  9  1  1
  7  9  1  0
  1 10  1  1
  3 11  1  6
  4 12  1  6
  1 13  1  0
  5 13  1  0
  6 14  1  0
  7 15  2  0
 12 16  1  0
 16 17  2  0
 16 18  1  0
 16 19  2  0
M  END
$$$$
