7NLV_UJE_BBB_201
     RDKit          3D

 21 23  0  0  0  0  0  0  0  0999 V2000
   -4.3911   12.7535   22.0447 O   0  0  0  0  0  0  0  0  0  0  0  0
   -8.9689    5.3239   25.5676 O   0  0  0  0  0  0  0  0  0  0  0  0
   -3.6914   11.6849   22.0835 C   0  0  0  0  0  0  0  0  0  0  0  0
   -3.6701   10.7966   23.2705 C   0  0  0  0  0  0  0  0  0  0  0  0
   -5.0684   10.4689   23.7499 C   0  0  0  0  0  0  0  0  0  0  0  0
   -4.8960    9.3761   24.7948 C   0  0  0  0  0  0  0  0  0  0  0  0
   -6.2126    9.0031   25.4429 C   0  0  0  0  0  0  0  0  0  0  0  0
   -6.0311    8.6614   26.9080 C   0  0  2  0  0  0  0  0  0  0  0  0
   -4.6688    7.4586   27.0001 S   0  0  0  0  0  0  0  0  0  0  0  0
   -5.6505    6.0343   27.5548 C   0  0  0  0  0  0  0  0  0  0  0  0
   -6.8836    6.6839   28.0652 C   0  0  2  0  0  0  0  0  0  0  0  0
   -7.9939    5.7781   27.7416 N   0  0  0  0  0  0  0  0  0  0  0  0
   -8.4144    6.1045   26.4058 C   0  0  0  0  0  0  0  0  0  0  0  0
   -8.0830    7.4859   26.2097 N   0  0  0  0  0  0  0  0  0  0  0  0
   -7.2374    7.8868   27.3174 C   0  0  2  0  0  0  0  0  0  0  0  0
   -2.8931   11.3006   20.9713 N   0  0  0  0  0  0  0  0  0  0  0  0
   -2.3202   12.2620   20.0402 C   0  0  1  0  0  0  0  0  0  0  0  0
   -1.4303   11.5432   19.0189 C   0  0  0  0  0  0  0  0  0  0  0  0
   -1.4504   12.5204   17.8734 C   0  0  0  0  0  0  0  0  0  0  0  0
   -2.5746   13.3995   18.0503 N   0  0  0  0  0  0  0  0  0  0  0  0
   -3.3544   12.8734   19.1505 C   0  0  0  0  0  0  0  0  0  0  0  0
  1  3  2  0
  4  3  1  6
  5  4  1  1
  6  5  1  6
  7  6  1  1
  8  7  1  0
  8  9  1  6
 10  9  1  6
 11 10  1  0
 11 12  1  6
 12 13  1  0
  2 13  2  0
 13 14  1  0
 11 15  1  0
 15 14  1  6
  8 15  1  0
  3 16  1  0
 17 16  1  1
 17 18  1  0
 18 19  1  6
 19 20  1  1
 17 21  1  0
 21 20  1  6
M  END
$$$$
