6XHT_V2V_B_301
     RDKit          3D

 59 60  0  0  0  0  0  0  0  0999 V2000
   -2.3876    1.5335   -2.1448 C   0  0  0  0  0  0  0  0  0  0  0  0
   -2.5289    0.6713   -1.0595 C   0  0  0  0  0  0  0  0  0  0  0  0
   -3.7855   -0.8212   -2.3971 C   0  0  0  0  0  0  0  0  0  0  0  0
   -2.9855    1.1888   -3.3568 C   0  0  0  0  0  0  0  0  0  0  0  0
   -3.3705   -1.4030   -0.0197 C   0  0  2  0  0  0  0  0  0  0  0  0
   -2.1315   -2.2741    0.1176 C   0  0  1  0  0  0  0  0  0  0  0  0
   -2.1012   -2.5531    1.6025 C   0  0  1  0  0  0  0  0  0  0  0  0
   -2.7602   -1.2952    2.1851 C   0  0  1  0  0  0  0  0  0  0  0  0
   -1.7127   -0.2945    2.6921 C   0  0  0  0  0  0  0  0  0  0  0  0
    2.9819    0.6736   -0.0068 C   0  0  0  0  0  0  0  0  0  0  0  0
    3.5184    0.2772   -1.3910 C   0  0  2  0  0  0  0  0  0  0  0  0
    3.4721   -1.2438   -1.6861 C   0  0  2  0  0  0  0  0  0  0  0  0
    2.0697   -1.9058   -1.6340 C   0  0  2  0  0  0  0  0  0  0  0  0
    1.0376   -1.1906   -2.5204 C   0  0  0  0  0  0  0  0  0  0  0  0
   -3.2455   -0.4911   -1.1793 N   0  0  0  0  0  0  0  0  0  0  0  0
   -3.6612    0.0193   -3.4576 N   0  0  0  0  0  0  0  0  0  0  0  0
   -2.8876    2.0562   -4.4900 N   0  0  0  0  0  0  0  0  0  0  0  0
   -4.4091   -1.9093   -2.5542 O   0  0  0  0  0  0  0  0  0  0  0  0
   -3.5438   -0.6719    1.1805 O   0  0  0  0  0  0  0  0  0  0  0  0
   -0.9972   -0.8568    3.7641 O   0  0  0  0  0  0  0  0  0  0  0  0
    0.3580    1.3851    4.0254 O   0  0  0  0  0  0  0  0  0  0  0  0
    1.3678   -0.7416    5.1851 O   0  0  0  0  0  0  0  0  0  0  0  0
    1.3690   -0.4630    2.4103 O   0  0  0  0  0  0  0  0  0  0  0  0
    3.7187   -0.3462    3.5963 O   0  0  0  0  0  0  0  0  0  0  0  0
    2.7626    1.9419    2.7573 O   0  0  0  0  0  0  0  0  0  0  0  0
    3.6983    0.0085    1.0076 O   0  0  0  0  0  0  0  0  0  0  0  0
   -0.0983   -2.0027   -2.6696 O   0  0  0  0  0  0  0  0  0  0  0  0
    1.6116   -1.9768   -0.3082 O   0  0  0  0  0  0  0  0  0  0  0  0
    4.3477   -1.9240   -0.8192 O   0  0  0  0  0  0  0  0  0  0  0  0
    4.8469    0.7152   -1.5113 O   0  0  0  0  0  0  0  0  0  0  0  0
   -2.8823   -3.6783    1.9222 O   0  0  0  0  0  0  0  0  0  0  0  0
   -2.2428   -3.4431   -0.6532 O   0  0  0  0  0  0  0  0  0  0  0  0
    0.5333   -0.1104    3.8521 P   0  0  1  0  0  5  0  0  0  0  0  0
    2.9011    0.2760    2.4890 P   0  0  2  0  0  5  0  0  0  0  0  0
   -1.8076    2.4481   -2.0487 H   0  0  0  0  0  0  0  0  0  0  0  0
   -2.0507    0.9328   -0.1283 H   0  0  0  0  0  0  0  0  0  0  0  0
   -4.2681   -2.0524   -0.1292 H   0  0  0  0  0  0  0  0  0  0  0  0
   -1.2246   -1.6972   -0.1750 H   0  0  0  0  0  0  0  0  0  0  0  0
   -1.0525   -2.6951    1.9589 H   0  0  0  0  0  0  0  0  0  0  0  0
   -3.4255   -1.5673    3.0387 H   0  0  0  0  0  0  0  0  0  0  0  0
   -1.0703   -0.0194    1.8285 H   0  0  0  0  0  0  0  0  0  0  0  0
   -2.2265    0.6196    3.0470 H   0  0  0  0  0  0  0  0  0  0  0  0
    3.1057    1.7742    0.1094 H   0  0  0  0  0  0  0  0  0  0  0  0
    1.8918    0.4542    0.0286 H   0  0  0  0  0  0  0  0  0  0  0  0
    2.8974    0.7929   -2.1599 H   0  0  0  0  0  0  0  0  0  0  0  0
    3.8446   -1.3603   -2.7294 H   0  0  0  0  0  0  0  0  0  0  0  0
    2.1982   -2.9415   -2.0303 H   0  0  0  0  0  0  0  0  0  0  0  0
    1.4805   -1.0006   -3.5229 H   0  0  0  0  0  0  0  0  0  0  0  0
    0.7444   -0.2171   -2.0609 H   0  0  0  0  0  0  0  0  0  0  0  0
   -3.3659    1.7980   -5.3828 H   0  0  0  0  0  0  0  0  0  0  0  0
   -2.4080    2.9859   -4.4201 H   0  0  0  0  0  0  0  0  0  0  0  0
    0.7948   -0.5256    5.9651 H   0  0  0  0  0  0  0  0  0  0  0  0
    3.6974    2.2709    2.8164 H   0  0  0  0  0  0  0  0  0  0  0  0
   -0.7505   -1.4545   -3.1872 H   0  0  0  0  0  0  0  0  0  0  0  0
    0.9676   -2.7301   -0.2641 H   0  0  0  0  0  0  0  0  0  0  0  0
    4.6158   -2.7611   -1.2744 H   0  0  0  0  0  0  0  0  0  0  0  0
    4.8195    1.6810   -1.7462 H   0  0  0  0  0  0  0  0  0  0  0  0
   -2.3052   -4.4726    1.7875 H   0  0  0  0  0  0  0  0  0  0  0  0
   -1.3682   -3.9055   -0.5884 H   0  0  0  0  0  0  0  0  0  0  0  0
  1  2  2  0
  1  4  1  0
  5  6  1  0
  6  7  1  0
  7  8  1  0
  8  9  1  0
 10 11  1  0
 11 12  1  0
 12 13  1  0
 13 14  1  0
  2 15  1  0
  3 15  1  0
  5 15  1  0
  3 16  1  0
  4 16  2  0
  4 17  1  0
  3 18  2  0
  5 19  1  0
  8 19  1  0
  9 20  1  0
 10 26  1  0
 14 27  1  0
 13 28  1  0
 12 29  1  0
 11 30  1  0
  7 31  1  0
  6 32  1  0
 33 20  1  6
 21 33  2  0
 33 22  1  0
 23 33  1  0
 34 23  1  6
 24 34  2  0
 34 25  1  0
 26 34  1  0
  1 35  1  0
  2 36  1  0
  5 37  1  6
  6 38  1  6
  7 39  1  1
  8 40  1  1
  9 41  1  0
  9 42  1  0
 10 43  1  0
 10 44  1  0
 11 45  1  6
 12 46  1  6
 13 47  1  6
 14 48  1  0
 14 49  1  0
 17 50  1  0
 17 51  1  0
 22 52  1  0
 25 53  1  0
 27 54  1  0
 28 55  1  0
 29 56  1  0
 30 57  1  0
 31 58  1  0
 32 59  1  0
M  END
