6VTA_AKN_A_302
     RDKit          3D

 40 42  0  0  0  0  0  0  0  0999 V2000
  102.8569    8.1040   16.1728 C   0  0  1  0  0  0  0  0  0  0  0  0
  102.9433    6.5943   16.0075 C   0  0  1  0  0  0  0  0  0  0  0  0
  102.0112    6.1461   14.9360 C   0  0  2  0  0  0  0  0  0  0  0  0
  100.5958    6.5107   15.2598 C   0  0  1  0  0  0  0  0  0  0  0  0
  100.4795    8.0184   15.4822 C   0  0  1  0  0  0  0  0  0  0  0  0
   99.1165    8.3829   15.9811 C   0  0  0  0  0  0  0  0  0  0  0  0
   99.7295    6.1859   14.1667 O   0  0  0  0  0  0  0  0  0  0  0  0
  103.2988    8.6670   14.9881 O   0  0  0  0  0  0  0  0  0  0  0  0
  101.4487    8.4824   16.4787 O   0  0  0  0  0  0  0  0  0  0  0  0
   99.1100    9.7806   16.3745 N   0  0  0  0  0  0  0  0  0  0  0  0
  102.6115   12.0936   12.5825 C   0  0  2  0  0  0  0  0  0  0  0  0
  101.8616   13.1171   11.8436 N   0  0  0  0  0  0  0  0  0  0  0  0
  102.0712   10.7330   12.1381 C   0  0  0  0  0  0  0  0  0  0  0  0
  102.7640    9.6026   12.9204 C   0  0  2  0  0  0  0  0  0  0  0  0
  102.2471    8.2994   12.4922 N   0  0  0  0  0  0  0  0  0  0  0  0
  102.5963    9.7889   14.4310 C   0  0  2  0  0  0  0  0  0  0  0  0
  103.1707   11.1528   14.8445 C   0  0  2  0  0  0  0  0  0  0  0  0
  102.9971   11.4154   16.2172 O   0  0  0  0  0  0  0  0  0  0  0  0
  102.4829   12.3110   14.0963 C   0  0  1  0  0  0  0  0  0  0  0  0
  103.1384   13.5110   14.4774 O   0  0  0  0  0  0  0  0  0  0  0  0
  102.3535   14.6426   14.4074 C   0  0  2  0  0  0  0  0  0  0  0  0
  103.2266   15.8771   14.5308 C   0  0  2  0  0  0  0  0  0  0  0  0
  104.2578   15.8241   13.5250 O   0  0  0  0  0  0  0  0  0  0  0  0
  103.8392   15.9818   15.8935 C   0  0  1  0  0  0  0  0  0  0  0  0
  104.6848   17.2198   15.9655 N   0  0  0  0  0  0  0  0  0  0  0  0
  102.7584   16.0198   16.9447 C   0  0  2  0  0  0  0  0  0  0  0  0
  103.3366   16.0841   18.2553 O   0  0  0  0  0  0  0  0  0  0  0  0
  101.8969   14.7659   16.8443 C   0  0  2  0  0  0  0  0  0  0  0  0
  101.3152   14.6155   15.4968 O   0  0  0  0  0  0  0  0  0  0  0  0
  100.7669   14.8009   17.8353 C   0  0  0  0  0  0  0  0  0  0  0  0
  100.1585   16.0684   17.7859 O   0  0  0  0  0  0  0  0  0  0  0  0
  104.2937    6.2645   15.6579 O   0  0  0  0  0  0  0  0  0  0  0  0
  102.1338    4.7124   14.8233 O   0  0  0  0  0  0  0  0  0  0  0  0
  100.5357   18.4332   11.4143 N   0  0  0  0  0  0  0  0  0  0  0  0
  102.5557   13.9859   10.8830 C   0  0  0  0  0  0  0  0  0  0  0  0
  103.7134   13.8571   10.6532 O   0  0  0  0  0  0  0  0  0  0  0  0
  101.7308   15.0614   10.1954 C   0  0  2  0  0  0  0  0  0  0  0  0
  101.8313   16.3578   11.0433 C   0  0  0  0  0  0  0  0  0  0  0  0
  101.0292   17.5031   10.3499 C   0  0  0  0  0  0  0  0  0  0  0  0
  100.4225   14.6306   10.1780 O   0  0  0  0  0  0  0  0  0  0  0  0
  1  2  1  0
  2  3  1  0
  3  4  1  0
  4  5  1  0
  5  6  1  1
  4  7  1  6
  1  8  1  6
  5  9  1  0
  1  9  1  0
  6 10  1  0
 11 12  1  6
 11 13  1  0
 13 14  1  0
 14 15  1  6
 14 16  1  0
 16  8  1  1
 16 17  1  0
 17 18  1  1
 11 19  1  0
 17 19  1  0
 19 20  1  6
 21 20  1  1
 21 22  1  0
 22 23  1  6
 22 24  1  0
 24 25  1  6
 24 26  1  0
 26 27  1  1
 26 28  1  0
 21 29  1  0
 28 29  1  0
 28 30  1  1
 30 31  1  0
  2 32  1  6
  3 33  1  1
 12 35  1  0
 35 36  2  0
 35 37  1  0
 37 38  1  0
 38 39  1  0
 34 39  1  0
 37 40  1  1
M  END
