6ZX3_QRZ_A_501
     RDKit          3D

 38 39  0  0  0  0  0  0  0  0999 V2000
   12.8836    7.2169   34.8201 C   0  0  0  0  0  0  0  0  0  0  0  0
   15.0843    9.4395   36.8895 C   0  0  0  0  0  0  0  0  0  0  0  0
   10.2024   10.8137   41.0744 O   0  0  0  0  0  0  0  0  0  0  0  0
   11.7597   10.8357   41.7404 P   0  0  1  0  0  5  0  0  0  0  0  0
   12.2353   12.2703   41.8258 O   0  0  0  0  0  0  0  0  0  0  0  0
   11.7025   10.1523   43.3030 O   0  0  0  0  0  0  0  0  0  0  0  0
   12.7977    9.9131   40.7448 O   0  0  0  0  0  0  0  0  0  0  0  0
   12.9248   10.5682   39.5035 C   0  0  1  0  0  0  0  0  0  0  0  0
   11.9055    9.9978   38.5094 C   0  0  2  0  0  0  0  0  0  0  0  0
   11.4093    8.6044   38.9351 C   0  0  1  0  0  0  0  0  0  0  0  0
   10.0135    8.5651   38.8272 O   0  0  0  0  0  0  0  0  0  0  0  0
   12.0571    7.6913   37.9150 C   0  0  1  0  0  0  0  0  0  0  0  0
   11.2624    6.5811   37.5955 O   0  0  0  0  0  0  0  0  0  0  0  0
   12.4984    9.9094   37.2264 O   0  0  0  0  0  0  0  0  0  0  0  0
   12.2084    8.6216   36.7272 C   0  0  1  0  0  0  0  0  0  0  0  0
   13.2491    8.1324   35.7828 N   0  0  0  0  0  0  0  0  0  0  0  0
   14.5858    8.4688   35.9036 C   0  0  0  0  0  0  0  0  0  0  0  0
   15.5357    7.8878   35.0592 C   0  0  0  0  0  0  0  0  0  0  0  0
   15.1280    6.9787   34.1050 C   0  0  0  0  0  0  0  0  0  0  0  0
   15.9727    6.4474   33.3343 O   0  0  0  0  0  0  0  0  0  0  0  0
   13.8145    6.6655   33.9939 N   0  0  0  0  0  0  0  0  0  0  0  0
   11.6788    6.8587   34.6951 O   0  0  0  0  0  0  0  0  0  0  0  0
   14.3838    9.4892   38.3722 S   0  0  0  0  0  0  0  0  0  0  0  0
   15.9122   10.5236   36.4588 N   0  0  0  0  0  0  0  0  0  0  0  0
    9.6693   10.2574   41.7030 H   0  0  0  0  0  0  0  0  0  0  0  0
   12.5828   10.3367   43.7070 H   0  0  0  0  0  0  0  0  0  0  0  0
   12.7200   11.6541   39.6318 H   0  0  0  0  0  0  0  0  0  0  0  0
   13.9464   10.4315   39.0736 H   0  0  0  0  0  0  0  0  0  0  0  0
   11.0519   10.7098   38.4490 H   0  0  0  0  0  0  0  0  0  0  0  0
   11.7296    8.3308   39.9697 H   0  0  0  0  0  0  0  0  0  0  0  0
    9.7449    7.6057   38.8840 H   0  0  0  0  0  0  0  0  0  0  0  0
   13.0555    7.3680   38.2805 H   0  0  0  0  0  0  0  0  0  0  0  0
   11.0871    6.1243   38.4543 H   0  0  0  0  0  0  0  0  0  0  0  0
   11.2215    8.7078   36.2114 H   0  0  0  0  0  0  0  0  0  0  0  0
   16.5884    8.1237   35.1645 H   0  0  0  0  0  0  0  0  0  0  0  0
   13.5058    5.9701   33.2577 H   0  0  0  0  0  0  0  0  0  0  0  0
   16.1152   11.3190   37.0970 H   0  0  0  0  0  0  0  0  0  0  0  0
   16.3811   10.4795   35.5285 H   0  0  0  0  0  0  0  0  0  0  0  0
  4  3  1  6
  4  5  2  0
  4  6  1  0
  4  7  1  0
  7  8  1  0
  9  8  1  0
  9 10  1  0
 10 11  1  0
 10 12  1  0
 12 13  1  0
  9 14  1  0
 14 15  1  0
 12 15  1  0
 15 16  1  0
  1 16  1  0
  2 17  1  0
 16 17  1  0
 17 18  2  0
 18 19  1  0
 19 20  2  0
 19 21  1  0
  1 21  1  0
  1 22  2  0
  2 23  2  0
  2 24  1  0
  3 25  1  0
  6 26  1  0
  8 27  1  1
  8 28  1  0
  9 29  1  6
 10 30  1  1
 11 31  1  0
 12 32  1  1
 13 33  1  0
 15 34  1  6
 18 35  1  0
 21 36  1  0
 24 37  1  0
 24 38  1  0
M  END
