7PK0_BYC_A_402
     RDKit          3D

 96 99  0  0  0  0  0  0  0  0999 V2000
  -14.9379   26.7247  -10.3538 N   0  0  0  0  0  0  0  0  0  0  0  0
  -17.0443   21.0652  -16.6752 O   0  0  0  0  0  0  0  0  0  0  0  0
  -15.8441   21.0533  -17.5728 P   0  0  1  0  0  5  0  0  0  0  0  0
  -21.4799   23.2131  -22.2978 C   0  0  0  0  0  0  0  0  0  0  0  0
  -15.2788   26.0030  -15.4293 C   0  0  2  0  0  0  0  0  0  0  0  0
  -21.8938   22.4118  -23.8365 S   0  0  0  0  0  0  0  0  0  0  0  0
  -14.4820   27.4474  -11.3883 C   0  0  0  0  0  0  0  0  0  0  0  0
  -14.6780   20.1796  -17.2137 O   0  0  0  0  0  0  0  0  0  0  0  0
  -17.3716   21.4294  -19.9893 P   0  0  2  0  0  5  0  0  0  0  0  0
  -22.4658   24.1671  -21.7428 C   0  0  0  0  0  0  0  0  0  0  0  0
  -16.4104   26.6024  -16.2525 C   0  0  1  0  0  0  0  0  0  0  0  0
  -16.5696   27.9804  -15.9796 O   0  0  0  0  0  0  0  0  0  0  0  0
  -20.6454   21.1091  -23.9237 C   0  0  0  0  0  0  0  0  0  0  0  0
  -14.6263   27.2322  -12.6979 N   0  0  0  0  0  0  0  0  0  0  0  0
  -16.1982   20.7803  -19.1049 O   0  0  0  0  0  0  0  0  0  0  0  0
  -22.3547   25.5033  -22.1089 C   0  0  0  0  0  0  0  0  0  0  0  0
  -15.9199   26.3059  -17.6611 C   0  0  1  0  0  0  0  0  0  0  0  0
  -14.9310   27.2852  -17.9955 O   0  0  0  0  0  0  0  0  0  0  0  0
  -14.8867   28.5377  -16.9598 P   0  0  2  0  0  5  0  0  0  0  0  0
  -20.2198   20.7748  -22.5288 C   0  0  0  0  0  0  0  0  0  0  0  0
  -15.3323   26.1055  -12.9035 C   0  0  0  0  0  0  0  0  0  0  0  0
  -17.7764   20.4727  -21.0695 O   0  0  0  0  0  0  0  0  0  0  0  0
  -23.2907   26.4327  -21.6820 C   0  0  0  0  0  0  0  0  0  0  0  0
  -15.2503   24.9257  -17.5244 C   0  0  1  0  0  0  0  0  0  0  0  0
  -14.8201   24.8643  -16.1369 O   0  0  0  0  0  0  0  0  0  0  0  0
  -20.5089   21.8255  -21.5824 N   0  0  0  0  0  0  0  0  0  0  0  0
  -20.3700   23.0397  -21.8291 O   0  0  0  0  0  0  0  0  0  0  0  0
  -16.9361   22.8055  -20.3404 O   0  0  0  0  0  0  0  0  0  0  0  0
  -24.3541   26.0396  -20.8799 C   0  0  0  0  0  0  0  0  0  0  0  0
  -16.1178   23.7141  -17.8213 C   0  0  0  0  0  0  0  0  0  0  0  0
  -15.2809   22.5466  -17.7079 O   0  0  0  0  0  0  0  0  0  0  0  0
  -15.8759   25.2765  -11.9465 C   0  0  0  0  0  0  0  0  0  0  0  0
  -19.5892   22.6343  -21.0228 C   0  0  0  0  0  0  0  0  0  0  0  0
  -18.9834   23.4573  -21.6929 O   0  0  0  0  0  0  0  0  0  0  0  0
  -15.6815   25.6173  -10.5970 C   0  0  0  0  0  0  0  0  0  0  0  0
  -16.0939   24.8641   -9.5751 N   0  0  0  0  0  0  0  0  0  0  0  0
  -18.5983   21.4919  -18.9614 O   0  0  0  0  0  0  0  0  0  0  0  0
  -24.4471   24.7322  -20.4867 C   0  0  0  0  0  0  0  0  0  0  0  0
  -19.4474   22.6061  -19.5100 C   0  0  0  0  0  0  0  0  0  0  0  0
  -16.5341   24.2062  -12.5427 N   0  0  0  0  0  0  0  0  0  0  0  0
  -13.4558   28.5524  -16.2928 O   0  0  0  0  0  0  0  0  0  0  0  0
  -23.5203   23.7936  -20.9145 C   0  0  0  0  0  0  0  0  0  0  0  0
  -20.0615   23.8295  -18.8212 C   0  0  0  0  0  0  0  0  0  0  0  0
  -16.3650   24.4074  -13.8192 C   0  0  0  0  0  0  0  0  0  0  0  0
  -15.9763   28.2957  -15.9283 O   0  0  0  0  0  0  0  0  0  0  0  0
  -19.4210   25.0919  -19.1846 N   0  0  0  0  0  0  0  0  0  0  0  0
  -15.6695   25.5517  -14.1132 N   0  0  0  0  0  4  0  0  0  0  0  0
  -15.0912   29.7859  -17.7352 O   0  0  0  0  0  0  0  0  0  0  0  0
  -18.2104   25.1920  -19.7077 C   0  0  0  0  0  0  0  0  0  0  0  0
  -17.9831   25.8276  -20.7402 O   0  0  0  0  0  0  0  0  0  0  0  0
  -17.1048   24.4057  -19.0200 C   0  0  1  0  0  0  0  0  0  0  0  0
  -16.1801   25.3198  -18.4614 O   0  0  0  0  0  0  0  0  0  0  0  0
  -17.5819   23.4176  -17.9386 C   0  0  2  0  0  0  0  0  0  0  0  0
  -18.9039   22.7408  -18.2731 C   0  0  0  0  0  0  0  0  0  0  0  0
  -17.7479   24.1730  -16.6038 C   0  0  0  0  0  0  0  0  0  0  0  0
  -16.5370   22.3072  -17.7675 C   0  0  0  0  0  0  0  0  0  0  0  0
  -14.5458   26.7703  -15.2917 H   0  0  0  0  0  0  0  0  0  0  0  0
  -13.9427   28.2901  -11.1354 H   0  0  0  0  0  0  0  0  0  0  0  0
  -14.9779   19.2617  -17.1219 H   0  0  0  0  0  0  0  0  0  0  0  0
  -17.3853   26.2077  -16.0558 H   0  0  0  0  0  0  0  0  0  0  0  0
  -15.7282   28.4392  -16.1297 H   0  0  0  0  0  0  0  0  0  0  0  0
  -21.0595   20.2416  -24.3937 H   0  0  0  0  0  0  0  0  0  0  0  0
  -19.8050   21.4406  -24.4971 H   0  0  0  0  0  0  0  0  0  0  0  0
  -21.5682   25.8064  -22.7043 H   0  0  0  0  0  0  0  0  0  0  0  0
  -16.6867   26.3221  -18.4072 H   0  0  0  0  0  0  0  0  0  0  0  0
  -20.7317   19.8875  -22.2197 H   0  0  0  0  0  0  0  0  0  0  0  0
  -19.1583   20.6402  -22.5423 H   0  0  0  0  0  0  0  0  0  0  0  0
  -17.0618   20.3998  -21.7213 H   0  0  0  0  0  0  0  0  0  0  0  0
  -23.1967   27.4217  -21.9615 H   0  0  0  0  0  0  0  0  0  0  0  0
  -14.4736   24.8637  -18.2577 H   0  0  0  0  0  0  0  0  0  0  0  0
  -21.4499   21.9612  -21.3267 H   0  0  0  0  0  0  0  0  0  0  0  0
  -25.0660   26.7256  -20.5839 H   0  0  0  0  0  0  0  0  0  0  0  0
  -16.9211   23.6580  -17.1167 H   0  0  0  0  0  0  0  0  0  0  0  0
  -16.5397   23.7827  -18.8022 H   0  0  0  0  0  0  0  0  0  0  0  0
  -15.9282   25.1565   -8.6497 H   0  0  0  0  0  0  0  0  0  0  0  0
  -16.5639   24.0162   -9.7467 H   0  0  0  0  0  0  0  0  0  0  0  0
  -25.2167   24.4410  -19.8639 H   0  0  0  0  0  0  0  0  0  0  0  0
  -19.9336   21.7279  -19.1396 H   0  0  0  0  0  0  0  0  0  0  0  0
  -18.4004   22.6104  -19.2896 H   0  0  0  0  0  0  0  0  0  0  0  0
  -13.3265   27.7348  -15.7871 H   0  0  0  0  0  0  0  0  0  0  0  0
  -23.6131   22.8100  -20.6163 H   0  0  0  0  0  0  0  0  0  0  0  0
  -21.0955   23.8854  -19.0910 H   0  0  0  0  0  0  0  0  0  0  0  0
  -19.9205   23.6991  -17.7686 H   0  0  0  0  0  0  0  0  0  0  0  0
  -16.7222   23.7640  -14.5427 H   0  0  0  0  0  0  0  0  0  0  0  0
  -19.9245   25.9236  -19.0295 H   0  0  0  0  0  0  0  0  0  0  0  0
  -14.3704   29.8903  -18.3758 H   0  0  0  0  0  0  0  0  0  0  0  0
  -16.6560   23.7946  -19.7751 H   0  0  0  0  0  0  0  0  0  0  0  0
  -16.6228   25.8539  -17.7834 H   0  0  0  0  0  0  0  0  0  0  0  0
  -19.4875   23.3741  -18.9081 H   0  0  0  0  0  0  0  0  0  0  0  0
  -19.4650   22.5512  -17.3820 H   0  0  0  0  0  0  0  0  0  0  0  0
  -18.4763   24.9480  -16.7207 H   0  0  0  0  0  0  0  0  0  0  0  0
  -18.0716   23.4907  -15.8457 H   0  0  0  0  0  0  0  0  0  0  0  0
  -16.8109   24.6042  -16.3190 H   0  0  0  0  0  0  0  0  0  0  0  0
  -16.4201   21.7818  -18.6923 H   0  0  0  0  0  0  0  0  0  0  0  0
  -15.6007   22.7395  -17.4822 H   0  0  0  0  0  0  0  0  0  0  0  0
  -16.8613   21.6260  -17.0088 H   0  0  0  0  0  0  0  0  0  0  0  0
  2  3  2  0
  4  6  1  0
  1  7  4  0
  3  8  1  6
  4 10  1  0
  5 11  1  0
 11 12  1  0
  6 13  1  0
  7 14  4  0
  3 15  1  0
  9 15  1  6
 10 16  4  0
 11 17  1  0
 17 18  1  0
 19 18  1  1
 13 20  1  0
 14 21  4  0
  9 22  1  0
 16 23  4  0
 17 24  1  0
  5 25  1  0
 24 25  1  0
 20 26  1  0
  4 27  2  0
  9 28  2  0
 23 29  4  0
 24 30  1  0
  3 31  1  0
 30 31  1  0
 21 32  4  0
 26 33  1  0
 33 34  2  0
  1 35  4  0
 32 35  4  0
 35 36  1  0
  9 37  1  0
 29 38  4  0
 33 39  1  0
 32 40  4  0
 19 41  1  0
 10 42  4  0
 38 42  4  0
 39 43  1  0
 40 44  4  0
 19 45  2  0
 43 46  1  0
  5 47  1  0
 21 47  4  0
 44 47  4  0
 19 48  1  0
 46 49  1  0
 49 50  2  0
 49 51  1  0
 51 52  1  0
 51 53  1  0
 37 54  1  0
 53 54  1  1
 53 55  1  0
 53 56  1  0
  5 57  1  6
  7 58  1  0
  8 59  1  0
 11 60  1  6
 12 61  1  0
 13 62  1  0
 13 63  1  0
 16 64  1  0
 17 65  1  1
 20 66  1  0
 20 67  1  0
 22 68  1  0
 23 69  1  0
 24 70  1  1
 26 71  1  0
 29 72  1  0
 30 73  1  0
 30 74  1  0
 36 75  1  0
 36 76  1  0
 38 77  1  0
 39 78  1  0
 39 79  1  0
 41 80  1  0
 42 81  1  0
 43 82  1  0
 43 83  1  0
 44 84  1  0
 46 85  1  0
 48 86  1  0
 51 87  1  1
 52 88  1  0
 54 89  1  0
 54 90  1  0
 55 91  1  0
 55 92  1  0
 55 93  1  0
 56 94  1  0
 56 95  1  0
 56 96  1  0
M  CHG  1  47   1
M  END
