7KM8_WPD_B_203
     RDKit          3D

 53 54  0  0  0  0  0  0  0  0999 V2000
  -24.7968   -8.8087  -16.8412 C   0  0  0  0  0  0  0  0  0  0  0  0
  -24.3527   -9.8618  -16.0308 O   0  0  0  0  0  0  0  0  0  0  0  0
  -26.2226   -8.9858  -14.2319 C   0  0  1  0  0  0  0  0  0  0  0  0
  -26.9755   -8.7251  -15.5333 C   0  0  2  0  0  0  0  0  0  0  0  0
  -26.0411   -8.2013  -16.5898 C   0  0  0  0  0  0  0  0  0  0  0  0
  -25.6491   -6.6504  -18.3378 C   0  0  0  0  0  0  0  0  0  0  0  0
  -24.0251   -8.3237  -17.9141 C   0  0  0  0  0  0  0  0  0  0  0  0
  -23.0842   -9.8463  -15.3709 C   0  0  1  0  0  0  0  0  0  0  0  0
  -22.8301   -8.4831  -14.7201 C   0  0  1  0  0  0  0  0  0  0  0  0
  -23.0973   -7.3358  -15.7006 C   0  0  2  0  0  0  0  0  0  0  0  0
  -21.7189   -5.4129  -16.5630 C   0  0  0  0  0  0  0  0  0  0  0  0
  -20.4512   -4.9959  -16.9856 C   0  0  0  0  0  0  0  0  0  0  0  0
  -20.2547   -3.6998  -17.4679 C   0  0  0  0  0  0  0  0  0  0  0  0
  -21.3245   -2.8041  -17.5282 C   0  0  0  0  0  0  0  0  0  0  0  0
  -22.5974   -3.1948  -17.0869 C   0  0  0  0  0  0  0  0  0  0  0  0
  -23.7629   -2.2422  -17.1863 C   0  0  2  0  0  0  0  0  0  0  0  0
  -24.6580   -2.5567  -18.4047 C   0  0  2  0  0  0  0  0  0  0  0  0
  -25.4770   -1.3218  -18.8140 C   0  0  2  0  0  0  0  0  0  0  0  0
  -25.5717   -3.7251  -18.1323 C   0  0  0  0  0  0  0  0  0  0  0  0
  -22.7897   -4.4987  -16.6021 C   0  0  0  0  0  0  0  0  0  0  0  0
  -26.4050   -0.9974  -17.8366 F   0  0  0  0  0  0  0  0  0  0  0  0
  -26.1396   -1.5611  -20.0076 F   0  0  0  0  0  0  0  0  0  0  0  0
  -26.4331   -7.1394  -17.3433 N   0  0  0  0  0  0  0  0  0  0  0  0
  -26.0779   -5.5197  -19.0930 N   0  0  0  0  0  0  0  0  0  0  0  0
  -24.4645   -7.2505  -18.6232 N   0  0  0  0  0  0  0  0  0  0  0  0
  -22.8183   -8.9751  -18.3186 N   0  0  0  0  0  0  0  0  0  0  0  0
  -21.8687   -6.7366  -16.1170 O   0  0  0  0  0  0  0  0  0  0  0  0
  -25.9881   -4.4325  -19.0879 O   0  0  0  0  0  0  0  0  0  0  0  0
  -25.9671   -4.0204  -16.8304 O   0  0  0  0  0  0  0  0  0  0  0  0
  -25.1883   -9.3181  -14.4621 H   0  0  0  0  0  0  0  0  0  0  0  0
  -26.1709   -8.0534  -13.6246 H   0  0  0  0  0  0  0  0  0  0  0  0
  -26.7314   -9.7813  -13.6416 H   0  0  0  0  0  0  0  0  0  0  0  0
  -27.7996   -8.0100  -15.3416 H   0  0  0  0  0  0  0  0  0  0  0  0
  -27.4359   -9.6755  -15.8823 H   0  0  0  0  0  0  0  0  0  0  0  0
  -23.0896  -10.6327  -14.5863 H   0  0  0  0  0  0  0  0  0  0  0  0
  -22.2673  -10.0775  -16.0848 H   0  0  0  0  0  0  0  0  0  0  0  0
  -23.4953   -8.3626  -13.8374 H   0  0  0  0  0  0  0  0  0  0  0  0
  -21.7785   -8.4419  -14.3697 H   0  0  0  0  0  0  0  0  0  0  0  0
  -23.7019   -6.5577  -15.1873 H   0  0  0  0  0  0  0  0  0  0  0  0
  -23.6811   -7.6819  -16.5804 H   0  0  0  0  0  0  0  0  0  0  0  0
  -19.6174   -5.6858  -16.9529 H   0  0  0  0  0  0  0  0  0  0  0  0
  -19.2731   -3.3920  -17.8033 H   0  0  0  0  0  0  0  0  0  0  0  0
  -21.1618   -1.8072  -17.9185 H   0  0  0  0  0  0  0  0  0  0  0  0
  -23.3708   -1.2049  -17.2741 H   0  0  0  0  0  0  0  0  0  0  0  0
  -24.3637   -2.2755  -16.2499 H   0  0  0  0  0  0  0  0  0  0  0  0
  -23.9951   -2.8132  -19.2631 H   0  0  0  0  0  0  0  0  0  0  0  0
  -24.7982   -0.4544  -18.9613 H   0  0  0  0  0  0  0  0  0  0  0  0
  -23.7752   -4.7901  -16.2671 H   0  0  0  0  0  0  0  0  0  0  0  0
  -25.4744   -5.1311  -19.8515 H   0  0  0  0  0  0  0  0  0  0  0  0
  -26.9869   -5.0533  -18.8770 H   0  0  0  0  0  0  0  0  0  0  0  0
  -22.7322   -9.3591  -19.2850 H   0  0  0  0  0  0  0  0  0  0  0  0
  -22.0576   -9.1844  -17.6387 H   0  0  0  0  0  0  0  0  0  0  0  0
  -25.8327   -4.9471  -16.4440 H   0  0  0  0  0  0  0  0  0  0  0  0
  1  2  1  0
  3  4  1  0
  1  5  2  0
  4  5  1  0
  1  7  1  0
  2  8  1  0
  8  9  1  0
  9 10  1  0
 11 12  2  0
 12 13  1  0
 13 14  2  0
 14 15  1  0
 15 16  1  0
 17 16  1  0
 17 18  1  0
 17 19  1  0
 15 20  2  0
 11 20  1  0
 18 21  1  0
 18 22  1  0
  6 23  2  0
  5 23  1  0
  6 24  1  0
  7 25  2  0
  6 25  1  0
  7 26  1  0
 11 27  1  0
 10 27  1  0
 19 28  2  0
 19 29  1  0
  3 30  1  6
  3 31  1  0
  3 32  1  0
  4 33  1  1
  4 34  1  0
  8 35  1  1
  8 36  1  0
  9 37  1  1
  9 38  1  0
 10 39  1  1
 10 40  1  0
 12 41  1  0
 13 42  1  0
 14 43  1  0
 16 44  1  6
 16 45  1  0
 17 46  1  6
 18 47  1  6
 20 48  1  0
 24 49  1  0
 24 50  1  0
 26 51  1  0
 26 52  1  0
 29 53  1  0
M  END
