8C3N_ADP_A_401
     RDKit          3D

 27 29  0  0  0  0  0  0  0  0999 V2000
   19.0300  -38.3370  -47.7140 P   0  0  0  0  0  0  0  0  0  0  0  0
   17.5370  -38.1750  -47.5860 O   0  0  0  0  0  0  0  0  0  0  0  0
   19.5020  -39.7250  -47.3580 O   0  0  0  0  0  0  0  0  0  0  0  0
   19.8110  -37.2550  -47.0100 O   0  0  0  0  0  0  0  0  0  0  0  0
   20.4180  -37.2300  -50.0260 P   0  0  1  0  0  0  0  0  0  0  0  0
   20.0370  -35.8090  -49.7740 O   0  0  0  0  0  0  0  0  0  0  0  0
   21.7940  -37.6710  -49.6530 O   0  0  0  0  0  0  0  0  0  0  0  0
   19.3570  -38.1730  -49.2840 O   0  0  0  0  0  0  0  0  0  0  0  0
   20.1340  -37.5680  -51.5660 O   0  0  0  0  0  0  0  0  0  0  0  0
   20.7610  -38.6960  -52.2150 C   0  0  0  0  0  0  0  0  0  0  0  0
   20.5790  -38.5390  -53.7040 C   0  0  1  0  0  0  0  0  0  0  0  0
   21.2840  -37.3460  -54.1350 O   0  0  0  0  0  0  0  0  0  0  0  0
   21.1080  -39.6860  -54.5790 C   0  0  1  0  0  0  0  0  0  0  0  0
   20.1730  -40.0330  -55.5900 O   0  0  0  0  0  0  0  0  0  0  0  0
   22.3680  -39.0880  -55.2070 C   0  0  1  0  0  0  0  0  0  0  0  0
   22.6970  -39.6610  -56.4530 O   0  0  0  0  0  0  0  0  0  0  0  0
   21.9770  -37.6200  -55.3270 C   0  0  2  0  0  0  0  0  0  0  0  0
   23.1420  -36.7520  -55.4170 N   0  0  0  0  0  0  0  0  0  0  0  0
   24.0920  -36.5630  -54.4460 C   0  0  0  0  0  0  0  0  0  0  0  0
   25.0500  -35.7490  -54.8080 N   0  0  0  0  0  0  0  0  0  0  0  0
   24.7170  -35.3780  -56.1020 C   0  0  0  0  0  0  0  0  0  0  0  0
   25.3420  -34.5270  -57.0330 C   0  0  0  0  0  0  0  0  0  0  0  0
   26.4740  -33.8720  -56.7930 N   0  0  0  0  0  0  0  0  0  0  0  0
   24.7440  -34.3730  -58.2370 N   0  0  0  0  0  0  0  0  0  0  0  0
   23.6060  -35.0360  -58.4730 C   0  0  0  0  0  0  0  0  0  0  0  0
   22.9310  -35.8610  -57.6770 N   0  0  0  0  0  0  0  0  0  0  0  0
   23.5440  -35.9940  -56.4910 C   0  0  0  0  0  0  0  0  0  0  0  0
  1  2  2  0
  1  3  1  0
  1  4  1  0
  5  6  2  0
  5  7  1  1
  1  8  1  0
  5  8  1  0
  5  9  1  0
  9 10  1  0
 11 10  1  1
 11 12  1  0
 11 13  1  0
 13 14  1  6
 13 15  1  0
 15 16  1  6
 12 17  1  0
 15 17  1  0
 17 18  1  1
 18 19  1  0
 19 20  2  0
 20 21  1  0
 21 22  1  0
 22 23  1  0
 22 24  2  0
 24 25  1  0
 25 26  2  0
 18 27  1  0
 21 27  2  0
 26 27  1  0
M  END
$$$$
