7V3S_5I9_A_1401
     RDKit          3D

 38 43  0  0  0  0  0  0  0  0999 V2000
  -10.8590  -23.6360   31.0060 N   0  0  0  0  0  0  0  0  0  0  0  0
   -9.7730  -13.9790   29.0960 N   0  0  0  0  0  0  0  0  0  0  0  0
   -9.2610  -25.4410   30.8210 C   0  0  0  0  0  0  0  0  0  0  0  0
   -9.5550  -24.0790   30.9300 C   0  0  0  0  0  0  0  0  0  0  0  0
   -8.5020  -23.1580   30.9720 C   0  0  0  0  0  0  0  0  0  0  0  0
  -11.0480  -22.2500   30.6530 C   0  0  0  0  0  0  0  0  0  0  0  0
  -10.0630  -21.4110   31.4290 C   0  0  0  0  0  0  0  0  0  0  0  0
  -11.5370  -19.5320   30.7170 C   0  0  0  0  0  0  0  0  0  0  0  0
   -9.3430  -17.6340   29.2630 C   0  0  0  0  0  0  0  0  0  0  0  0
   -9.6050  -15.2750   29.6580 C   0  0  0  0  0  0  0  0  0  0  0  0
   -9.4160  -16.7920   31.4850 C   0  0  0  0  0  0  0  0  0  0  0  0
   -9.1650  -10.3780   29.2010 C   0  0  0  0  0  0  0  0  0  0  0  0
  -10.4080  -11.8360   27.4410 C   0  0  0  0  0  0  0  0  0  0  0  0
  -10.5940  -10.3730   29.6030 C   0  0  0  0  0  0  0  0  0  0  0  0
  -11.8860  -11.6920   24.8460 C   0  0  0  0  0  0  0  0  0  0  0  0
  -11.4510  -11.0560   22.6150 C   0  0  0  0  0  0  0  0  0  0  0  0
  -10.1700  -10.0920   24.3580 C   0  0  0  0  0  0  0  0  0  0  0  0
   -7.1830  -23.5860   30.9000 C   0  0  0  0  0  0  0  0  0  0  0  0
  -10.2930  -19.9770   31.0570 C   0  0  0  0  0  0  0  0  0  0  0  0
   -9.2900  -17.8600   30.6260 C   0  0  0  0  0  0  0  0  0  0  0  0
   -9.5010  -16.3460   28.7800 C   0  0  0  0  0  0  0  0  0  0  0  0
   -9.5700  -15.5070   31.0300 C   0  0  0  0  0  0  0  0  0  0  0  0
   -9.7370  -12.8000   29.7410 C   0  0  0  0  0  0  0  0  0  0  0  0
  -10.0310  -11.6010   28.8830 C   0  0  0  0  0  0  0  0  0  0  0  0
   -6.9210  -24.9370   30.7790 C   0  0  0  0  0  0  0  0  0  0  0  0
  -10.9040  -10.8160   25.2870 C   0  0  0  0  0  0  0  0  0  0  0  0
  -12.1770  -11.8020   23.4970 C   0  0  0  0  0  0  0  0  0  0  0  0
  -10.4550  -10.2050   23.0060 C   0  0  0  0  0  0  0  0  0  0  0  0
   -7.9550  -25.8530   30.7400 C   0  0  0  0  0  0  0  0  0  0  0  0
  -12.6080  -20.4590   30.6610 C   0  0  0  0  0  0  0  0  0  0  0  0
   -9.3830  -17.0230   32.8170 F   0  0  0  0  0  0  0  0  0  0  0  0
  -11.7280  -11.1720   21.2890 F   0  0  0  0  0  0  0  0  0  0  0  0
  -12.4280  -21.7540   30.7950 N   0  0  0  0  0  0  0  0  0  0  0  0
  -10.5910  -10.7500   26.6740 N   0  0  0  0  0  0  0  0  0  0  0  0
   -8.7140  -21.8010   31.0860 O   0  0  0  0  0  0  0  0  0  0  0  0
   -9.1650  -19.1560   31.1170 O   0  0  0  0  0  0  0  0  0  0  0  0
   -9.4720  -12.6740   30.9250 O   0  0  0  0  0  0  0  0  0  0  0  0
  -10.5020  -12.9690   26.9990 O   0  0  0  0  0  0  0  0  0  0  0  0
  3  4  1  0
  1  4  1  0
  4  5  2  0
  1  6  1  0
  6  7  2  0
  2 10  1  0
 12 14  1  0
  5 18  1  0
  8 19  2  0
  7 19  1  0
  9 20  2  0
 11 20  1  0
  9 21  1  0
 10 21  2  0
 10 22  1  0
 11 22  2  0
  2 23  1  0
 13 24  1  0
 12 24  1  0
 14 24  1  0
 23 24  1  0
 18 25  2  0
 17 26  1  0
 15 26  2  0
 16 27  2  0
 15 27  1  0
 16 28  1  0
 17 28  2  0
 25 29  1  0
  3 29  2  0
  8 30  1  0
 11 31  1  0
 16 32  1  0
  6 33  1  0
 30 33  2  0
 26 34  1  0
 13 34  1  0
  5 35  1  0
  7 35  1  0
 20 36  1  0
 19 36  1  0
 23 37  2  0
 13 38  2  0
M  END
$$$$
