7L81_UD4_AAA_301
     RDKit          3D

 66 68  0  0  0  0  0  0  0  0999 V2000
   -2.4679    1.0530    3.5891 N   0  0  0  0  0  0  0  0  0  0  0  0
   -2.7551   -0.1159    2.9523 C   0  0  0  0  0  0  0  0  0  0  0  0
   -2.8868   -1.2827    3.6688 N   0  0  0  0  0  0  0  0  0  0  0  0
   -2.3206    1.0996    4.9388 C   0  0  0  0  0  0  0  0  0  0  0  0
   -2.4666   -0.0614    5.6910 C   0  0  0  0  0  0  0  0  0  0  0  0
   -2.7572   -1.2524    5.0308 C   0  0  0  0  0  0  0  0  0  0  0  0
    5.1600   -2.4222   -1.6701 O   0  0  0  0  0  0  0  0  0  0  0  0
    5.3073   -1.5104   -0.8124 C   0  0  0  0  0  0  0  0  0  0  0  0
    6.1396   -1.7768    0.4002 C   0  0  0  0  0  0  0  0  0  0  0  0
    4.7296   -0.2121   -1.0189 N   0  0  0  0  0  0  0  0  0  0  0  0
    3.8672    0.1083   -2.1643 C   0  0  2  0  0  0  0  0  0  0  0  0
    4.3553    1.4231   -2.8287 C   0  0  1  0  0  0  0  0  0  0  0  0
    5.3470    1.1530   -3.7887 O   0  0  0  0  0  0  0  0  0  0  0  0
    3.1755    2.2137   -3.4355 C   0  0  2  0  0  0  0  0  0  0  0  0
    3.6538    3.4756   -4.0085 N   0  0  0  0  0  0  0  0  0  0  0  0
    2.1180    2.4899   -2.3182 C   0  0  1  0  0  0  0  0  0  0  0  0
    0.6978    2.6267   -2.8828 C   0  0  0  0  0  0  0  0  0  0  0  0
    2.1337    1.5403   -1.2552 O   0  0  0  0  0  0  0  0  0  0  0  0
    2.3884    0.2251   -1.7204 C   0  0  2  0  0  0  0  0  0  0  0  0
    2.1343   -0.6995   -0.6828 O   0  0  0  0  0  0  0  0  0  0  0  0
    0.4518   -0.9516   -0.5497 P   0  0  1  0  0  5  0  0  0  0  0  0
    0.2061   -1.8735    0.6232 O   0  0  0  0  0  0  0  0  0  0  0  0
   -0.3273    0.5271   -0.2622 O   0  0  0  0  0  0  0  0  0  0  0  0
   -0.1016   -1.7026   -1.9775 O   0  0  0  0  0  0  0  0  0  0  0  0
   -1.7686   -1.3951   -2.1225 P   0  0  1  0  0  5  0  0  0  0  0  0
   -2.0056    0.2344   -2.5147 O   0  0  0  0  0  0  0  0  0  0  0  0
   -2.3257   -2.2406   -3.2462 O   0  0  0  0  0  0  0  0  0  0  0  0
   -2.5883   -1.7436   -0.6677 O   0  0  0  0  0  0  0  0  0  0  0  0
   -2.5997   -3.1387   -0.4700 C   0  0  0  0  0  0  0  0  0  0  0  0
   -3.1314   -3.4532    0.9331 C   0  0  1  0  0  0  0  0  0  0  0  0
   -2.3683   -2.7661    1.8947 O   0  0  0  0  0  0  0  0  0  0  0  0
   -4.5960   -3.0485    1.1071 C   0  0  1  0  0  0  0  0  0  0  0  0
   -5.4563   -4.1276    0.8423 O   0  0  0  0  0  0  0  0  0  0  0  0
   -4.6738   -2.6060    2.5568 C   0  0  1  0  0  0  0  0  0  0  0  0
   -5.4051   -3.5190    3.3357 O   0  0  0  0  0  0  0  0  0  0  0  0
   -3.2070   -2.5666    3.0101 C   0  0  2  0  0  0  0  0  0  0  0  0
   -2.9048   -0.1098    1.7002 O   0  0  0  0  0  0  0  0  0  0  0  0
   -2.0562    2.1916    5.5094 O   0  0  0  0  0  0  0  0  0  0  0  0
   -2.3649    1.9312    3.0302 H   0  0  0  0  0  0  0  0  0  0  0  0
   -2.3591   -0.0447    6.7687 H   0  0  0  0  0  0  0  0  0  0  0  0
   -2.8772   -2.1542    5.6198 H   0  0  0  0  0  0  0  0  0  0  0  0
    5.8119   -1.1336    1.2450 H   0  0  0  0  0  0  0  0  0  0  0  0
    6.0376   -2.8401    0.7064 H   0  0  0  0  0  0  0  0  0  0  0  0
    7.2049   -1.5625    0.1707 H   0  0  0  0  0  0  0  0  0  0  0  0
    4.8445    0.5073   -0.2681 H   0  0  0  0  0  0  0  0  0  0  0  0
    3.9161   -0.7111   -2.9162 H   0  0  0  0  0  0  0  0  0  0  0  0
    4.8148    2.0743   -2.0515 H   0  0  0  0  0  0  0  0  0  0  0  0
    4.9204    0.6502   -4.5311 H   0  0  0  0  0  0  0  0  0  0  0  0
    2.7156    1.5978   -4.2439 H   0  0  0  0  0  0  0  0  0  0  0  0
    4.2778    3.2569   -4.8193 H   0  0  0  0  0  0  0  0  0  0  0  0
    2.8370    3.9871   -4.4143 H   0  0  0  0  0  0  0  0  0  0  0  0
    2.3705    3.4692   -1.8544 H   0  0  0  0  0  0  0  0  0  0  0  0
   -0.0147    2.8402   -2.0571 H   0  0  0  0  0  0  0  0  0  0  0  0
    0.3781    1.6931   -3.3918 H   0  0  0  0  0  0  0  0  0  0  0  0
    0.6475    3.4637   -3.6100 H   0  0  0  0  0  0  0  0  0  0  0  0
    1.7621   -0.0139   -2.6154 H   0  0  0  0  0  0  0  0  0  0  0  0
    0.0141    0.8287    0.6175 H   0  0  0  0  0  0  0  0  0  0  0  0
   -2.9854    0.3672   -2.4609 H   0  0  0  0  0  0  0  0  0  0  0  0
   -3.2537   -3.6327   -1.2227 H   0  0  0  0  0  0  0  0  0  0  0  0
   -1.5747   -3.5676   -0.5478 H   0  0  0  0  0  0  0  0  0  0  0  0
   -3.0200   -4.5478    1.1143 H   0  0  0  0  0  0  0  0  0  0  0  0
   -4.8589   -2.1808    0.4557 H   0  0  0  0  0  0  0  0  0  0  0  0
   -5.4765   -4.2369   -0.1440 H   0  0  0  0  0  0  0  0  0  0  0  0
   -5.1516   -1.5986    2.6083 H   0  0  0  0  0  0  0  0  0  0  0  0
   -5.5844   -3.0682    4.2012 H   0  0  0  0  0  0  0  0  0  0  0  0
   -3.0140   -3.4140    3.7097 H   0  0  0  0  0  0  0  0  0  0  0  0
  1  2  1  0
  2  3  1  0
  1  4  1  0
  4  5  1  0
  3  6  1  0
  5  6  2  0
  7  8  2  0
  8  9  1  0
  8 10  1  0
 11 10  1  0
 11 12  1  0
 12 13  1  0
 12 14  1  0
 14 15  1  0
 14 16  1  0
 16 17  1  0
 16 18  1  0
 11 19  1  0
 18 19  1  0
 19 20  1  0
 21 20  1  6
 21 22  2  0
 21 23  1  0
 21 24  1  0
 25 24  1  1
 25 26  1  0
 25 27  2  0
 25 28  1  0
 28 29  1  0
 30 29  1  0
 30 31  1  0
 30 32  1  0
 32 33  1  0
 32 34  1  0
 34 35  1  0
 36  3  1  0
 31 36  1  0
 34 36  1  0
  2 37  2  0
  4 38  2  0
  1 39  1  0
  5 40  1  0
  6 41  1  0
  9 42  1  0
  9 43  1  0
  9 44  1  0
 10 45  1  0
 11 46  1  6
 12 47  1  1
 13 48  1  0
 14 49  1  6
 15 50  1  0
 15 51  1  0
 16 52  1  1
 17 53  1  0
 17 54  1  0
 17 55  1  0
 19 56  1  6
 23 57  1  0
 26 58  1  0
 29 59  1  0
 29 60  1  0
 30 61  1  1
 32 62  1  6
 33 63  1  0
 34 64  1  6
 35 65  1  0
 36 66  1  1
M  END
