1LPZ_CMB_B_301
     RDKit          3D

 32 35  0  0  0  0  0  0  0  0999 V2000
    9.4158   10.0725   21.6533 C   0  0  0  0  0  0  0  0  0  0  0  0
    8.9314    9.3143   22.7139 C   0  0  0  0  0  0  0  0  0  0  0  0
    7.7213    8.6560   22.6637 C   0  0  0  0  0  0  0  0  0  0  0  0
    7.0105    8.8014   21.4738 C   0  0  0  0  0  0  0  0  0  0  0  0
    7.4816    9.5482   20.4219 C   0  0  0  0  0  0  0  0  0  0  0  0
    8.6770   10.1877   20.4939 C   0  0  0  0  0  0  0  0  0  0  0  0
    7.0152    7.8704   23.5202 N   0  0  0  0  0  0  0  0  0  0  0  0
    5.8804    7.5131   22.9207 C   0  0  0  0  0  0  0  0  0  0  0  0
    5.8549    8.0789   21.6461 C   0  0  0  0  0  0  0  0  0  0  0  0
    6.6921    9.6852   19.1518 C   0  0  0  0  0  0  0  0  0  0  0  0
    4.7567    6.7188   23.4223 C   0  0  0  0  0  0  0  0  0  0  0  0
    3.8066    6.1149   22.5363 N   0  0  0  0  0  0  0  0  0  0  0  0
    2.5636    5.5508   22.9453 C   0  0  0  0  0  0  0  0  0  0  0  0
    1.6574    6.4244   23.6873 C   0  0  0  0  0  0  0  0  0  0  0  0
    7.4492    7.5074   24.8497 C   0  0  0  0  0  0  0  0  0  0  0  0
    8.8888    7.7226   25.0962 C   0  0  0  0  0  0  0  0  0  0  0  0
    9.7697    8.2835   24.2063 C   0  0  0  0  0  0  0  0  0  0  0  0
   11.1248    8.4545   24.4915 C   0  0  0  0  0  0  0  0  0  0  0  0
   11.6333    8.0567   25.7022 C   0  0  0  0  0  0  0  0  0  0  0  0
   10.7833    7.4965   26.6052 C   0  0  0  0  0  0  0  0  0  0  0  0
    9.4415    7.3273   26.3225 C   0  0  0  0  0  0  0  0  0  0  0  0
    1.3389    6.3095   25.0200 C   0  0  0  0  0  0  0  0  0  0  0  0
    0.4573    7.1919   25.6482 C   0  0  0  0  0  0  0  0  0  0  0  0
   -0.1312    8.2244   24.9382 C   0  0  0  0  0  0  0  0  0  0  0  0
    0.1796    8.3462   23.6138 C   0  0  0  0  0  0  0  0  0  0  0  0
    1.0459    7.4786   22.9971 C   0  0  0  0  0  0  0  0  0  0  0  0
   11.3558    7.0778   27.8983 C   0  0  0  0  0  0  0  0  0  0  0  0
   10.5685    6.6081   28.8254 N   0  0  0  0  0  0  0  0  0  0  0  0
    0.1070    6.9719   27.3515 Cl  0  0  0  0  0  0  0  0  0  0  0  0
   -0.5163    9.6322   22.6131 Cl  0  0  0  0  0  0  0  0  0  0  0  0
    4.5540    6.5170   24.6482 O   0  0  0  0  0  0  0  0  0  0  0  0
   12.7334    7.1607   28.1893 N   0  0  0  0  0  0  0  0  0  0  0  0
  1  2  2  0
  2  3  1  0
  3  4  2  0
  4  5  1  0
  1  6  1  0
  5  6  2  0
  3  7  1  0
  7  8  1  0
  4  9  1  0
  8  9  2  0
  5 10  1  0
  8 11  1  0
 11 12  1  0
 12 13  1  0
 13 14  1  0
  7 15  1  0
 15 16  1  0
 16 17  2  0
 17 18  1  0
 18 19  2  0
 19 20  1  0
 16 21  1  0
 20 21  2  0
 14 22  2  0
 22 23  1  0
 23 24  2  0
 24 25  1  0
 14 26  1  0
 25 26  2  0
 20 27  1  0
 27 28  2  0
 23 29  1  0
 25 30  1  0
 11 31  2  0
 27 32  1  0
M  END
$$$$
