1LPZ_CMB_B_301
     RDKit          3D

 32 35  0  0  0  0  0  0  0  0999 V2000
    4.7479   20.3112   34.4833 C   0  0  0  0  0  0  0  0  0  0  0  0
    5.8238   20.4019   35.3600 C   0  0  0  0  0  0  0  0  0  0  0  0
    6.2739   21.6050   35.8604 C   0  0  0  0  0  0  0  0  0  0  0  0
    5.5766   22.7311   35.4270 C   0  0  0  0  0  0  0  0  0  0  0  0
    4.5134   22.6503   34.5615 C   0  0  0  0  0  0  0  0  0  0  0  0
    4.0873   21.4538   34.0818 C   0  0  0  0  0  0  0  0  0  0  0  0
    7.2711   21.9859   36.7029 N   0  0  0  0  0  0  0  0  0  0  0  0
    7.2362   23.3126   36.8192 C   0  0  0  0  0  0  0  0  0  0  0  0
    6.1898   23.7991   36.0359 C   0  0  0  0  0  0  0  0  0  0  0  0
    3.7815   23.8827   34.1133 C   0  0  0  0  0  0  0  0  0  0  0  0
    8.1159   24.2191   37.5605 C   0  0  0  0  0  0  0  0  0  0  0  0
    7.7306   25.5666   37.8574 N   0  0  0  0  0  0  0  0  0  0  0  0
    8.5043   26.4770   38.6341 C   0  0  0  0  0  0  0  0  0  0  0  0
    8.8448   26.0584   39.9920 C   0  0  0  0  0  0  0  0  0  0  0  0
    8.1969   21.0799   37.3431 C   0  0  0  0  0  0  0  0  0  0  0  0
    8.8554   20.1350   36.4195 C   0  0  0  0  0  0  0  0  0  0  0  0
    8.9453   20.2896   35.0591 C   0  0  0  0  0  0  0  0  0  0  0  0
    9.5739   19.3570   34.2332 C   0  0  0  0  0  0  0  0  0  0  0  0
   10.1366   18.2260   34.7686 C   0  0  0  0  0  0  0  0  0  0  0  0
   10.0626   18.0452   36.1153 C   0  0  0  0  0  0  0  0  0  0  0  0
    9.4402   18.9688   36.9328 C   0  0  0  0  0  0  0  0  0  0  0  0
    8.3041   24.9875   40.6642 C   0  0  0  0  0  0  0  0  0  0  0  0
    8.6890   24.6614   41.9665 C   0  0  0  0  0  0  0  0  0  0  0  0
    9.6405   25.4170   42.6301 C   0  0  0  0  0  0  0  0  0  0  0  0
   10.1830   26.4825   41.9698 C   0  0  0  0  0  0  0  0  0  0  0  0
    9.8042   26.8024   40.6901 C   0  0  0  0  0  0  0  0  0  0  0  0
   10.6754   16.8211   36.6645 C   0  0  0  0  0  0  0  0  0  0  0  0
   11.3748   16.0481   35.8814 N   0  0  0  0  0  0  0  0  0  0  0  0
    7.9480   23.2791   42.7490 Cl  0  0  0  0  0  0  0  0  0  0  0  0
   11.4089   27.5146   42.7257 Cl  0  0  0  0  0  0  0  0  0  0  0  0
    9.2529   23.8791   37.9800 O   0  0  0  0  0  0  0  0  0  0  0  0
   10.5416   16.4366   38.0149 N   0  0  0  0  0  0  0  0  0  0  0  0
  1  2  2  0
  2  3  1  0
  3  4  2  0
  4  5  1  0
  1  6  1  0
  5  6  2  0
  3  7  1  0
  7  8  1  0
  4  9  1  0
  8  9  2  0
  5 10  1  0
  8 11  1  0
 11 12  1  0
 12 13  1  0
 13 14  1  0
  7 15  1  0
 15 16  1  0
 16 17  2  0
 17 18  1  0
 18 19  2  0
 19 20  1  0
 16 21  1  0
 20 21  2  0
 14 22  2  0
 22 23  1  0
 23 24  2  0
 24 25  1  0
 14 26  1  0
 25 26  2  0
 20 27  1  0
 27 28  2  0
 23 29  1  0
 25 30  1  0
 11 31  2  0
 27 32  1  0
M  END
$$$$
