1LPZ_CMB_B_301
     RDKit          3D

 32 35  0  0  0  0  0  0  0  0999 V2000
    5.1611    6.1810   24.0069 C   0  0  0  0  0  0  0  0  0  0  0  0
    6.3108    6.9578   23.9112 C   0  0  0  0  0  0  0  0  0  0  0  0
    6.4334    7.9939   23.0102 C   0  0  0  0  0  0  0  0  0  0  0  0
    5.3237    8.2126   22.1960 C   0  0  0  0  0  0  0  0  0  0  0  0
    4.1848    7.4502   22.2840 C   0  0  0  0  0  0  0  0  0  0  0  0
    4.0866    6.4347   23.1798 C   0  0  0  0  0  0  0  0  0  0  0  0
    7.4068    8.8915   22.7002 N   0  0  0  0  0  0  0  0  0  0  0  0
    6.9589    9.6711   21.7171 C   0  0  0  0  0  0  0  0  0  0  0  0
    5.6648    9.2692   21.3870 C   0  0  0  0  0  0  0  0  0  0  0  0
    3.0048    7.7112   21.3925 C   0  0  0  0  0  0  0  0  0  0  0  0
    7.6272   10.7534   20.9909 C   0  0  0  0  0  0  0  0  0  0  0  0
    6.8925   11.6957   20.2007 N   0  0  0  0  0  0  0  0  0  0  0  0
    7.4836   12.6547   19.3278 C   0  0  0  0  0  0  0  0  0  0  0  0
    7.6381   12.2630   17.9286 C   0  0  0  0  0  0  0  0  0  0  0  0
    8.6984    8.9583   23.3446 C   0  0  0  0  0  0  0  0  0  0  0  0
    8.8401    8.0635   24.5102 C   0  0  0  0  0  0  0  0  0  0  0  0
    7.8524    7.2544   25.0126 C   0  0  0  0  0  0  0  0  0  0  0  0
    8.0417    6.4340   26.1252 C   0  0  0  0  0  0  0  0  0  0  0  0
    9.2527    6.4095   26.7696 C   0  0  0  0  0  0  0  0  0  0  0  0
   10.2516    7.2019   26.2942 C   0  0  0  0  0  0  0  0  0  0  0  0
   10.0639    8.0142   25.1924 C   0  0  0  0  0  0  0  0  0  0  0  0
    7.9904   13.0962   16.8931 C   0  0  0  0  0  0  0  0  0  0  0  0
    8.1126   12.6338   15.5809 C   0  0  0  0  0  0  0  0  0  0  0  0
    7.8795   11.3031   15.2783 C   0  0  0  0  0  0  0  0  0  0  0  0
    7.5292   10.4682   16.3009 C   0  0  0  0  0  0  0  0  0  0  0  0
    7.4093   10.9234   17.5901 C   0  0  0  0  0  0  0  0  0  0  0  0
   11.5428    7.1564   27.0055 C   0  0  0  0  0  0  0  0  0  0  0  0
   11.6472    6.4544   28.0993 N   0  0  0  0  0  0  0  0  0  0  0  0
    8.5660   13.7654   14.3215 Cl  0  0  0  0  0  0  0  0  0  0  0  0
    7.2096    8.7475   16.0243 Cl  0  0  0  0  0  0  0  0  0  0  0  0
    8.8741   10.9247   21.0127 O   0  0  0  0  0  0  0  0  0  0  0  0
   12.6895    7.8443   26.5569 N   0  0  0  0  0  0  0  0  0  0  0  0
  1  2  2  0
  2  3  1  0
  3  4  2  0
  4  5  1  0
  1  6  1  0
  5  6  2  0
  3  7  1  0
  7  8  1  0
  4  9  1  0
  8  9  2  0
  5 10  1  0
  8 11  1  0
 11 12  1  0
 12 13  1  0
 13 14  1  0
  7 15  1  0
 15 16  1  0
 16 17  2  0
 17 18  1  0
 18 19  2  0
 19 20  1  0
 16 21  1  0
 20 21  2  0
 14 22  2  0
 22 23  1  0
 23 24  2  0
 24 25  1  0
 14 26  1  0
 25 26  2  0
 20 27  1  0
 27 28  2  0
 23 29  1  0
 25 30  1  0
 11 31  2  0
 27 32  1  0
M  END
$$$$
