7UJ4_OQ4_A_601
     RDKit          3D

 44 48  0  0  0  0  0  0  0  0999 V2000
  -43.2551  -15.3169   14.0825 C   0  0  0  0  0  0  0  0  0  0  0  0
  -42.9609  -15.5860   12.6139 C   0  0  2  0  0  0  0  0  0  0  0  0
  -42.5688  -17.0173   12.3864 C   0  0  0  0  0  0  0  0  0  0  0  0
  -41.9956  -14.6521   12.0976 N   0  0  0  0  0  0  0  0  0  0  0  0
  -40.7451  -14.3831   12.8076 C   0  0  0  0  0  0  0  0  0  0  0  0
  -39.7070  -15.4547   12.5244 C   0  0  0  0  0  0  0  0  0  0  0  0
  -42.2451  -13.9767   10.8772 C   0  0  0  0  0  0  0  0  0  0  0  0
  -43.3120  -14.2297   10.2547 O   0  0  0  0  0  0  0  0  0  0  0  0
  -41.3518  -13.0022   10.2774 C   0  0  0  0  0  0  0  0  0  0  0  0
  -41.1714  -11.8157   10.9984 C   0  0  0  0  0  0  0  0  0  0  0  0
  -40.3443  -10.8073   10.5547 C   0  0  0  0  0  0  0  0  0  0  0  0
  -40.1936   -9.6671   11.2816 F   0  0  0  0  0  0  0  0  0  0  0  0
  -39.6899  -10.9957    9.3691 C   0  0  0  0  0  0  0  0  0  0  0  0
  -39.8677  -12.1563    8.6659 C   0  0  0  0  0  0  0  0  0  0  0  0
  -40.6908  -13.1882    9.0829 C   0  0  0  0  0  0  0  0  0  0  0  0
  -40.8220  -14.2978    8.3499 O   0  0  0  0  0  0  0  0  0  0  0  0
  -40.0185  -15.2448    7.8460 C   0  0  0  0  0  0  0  0  0  0  0  0
  -38.7060  -15.3074    8.3539 C   0  0  0  0  0  0  0  0  0  0  0  0
  -37.8156  -16.2086    7.9256 N   0  0  0  0  0  0  0  0  0  0  0  0
  -38.1245  -17.1046    6.9868 C   0  0  0  0  0  0  0  0  0  0  0  0
  -39.3668  -17.0718    6.4824 N   0  0  0  0  0  0  0  0  0  0  0  0
  -40.3150  -16.1753    6.8814 C   0  0  0  0  0  0  0  0  0  0  0  0
  -41.5688  -16.2947    6.2325 N   0  0  0  0  0  0  0  0  0  0  0  0
  -42.8325  -15.6649    6.0341 C   0  0  0  0  0  0  0  0  0  0  0  0
  -42.0414  -17.3941    5.3619 C   0  0  0  0  0  0  0  0  0  0  0  0
  -43.3090  -16.6816    5.0332 C   0  0  2  0  0  0  0  0  0  0  0  0
  -43.3102  -16.1949    3.6302 C   0  0  0  0  0  0  0  0  0  0  0  0
  -44.6327  -15.8358    3.0504 C   0  0  0  0  0  0  0  0  0  0  0  0
  -44.5560  -17.3981    5.4803 C   0  0  0  0  0  0  0  0  0  0  0  0
  -45.7882  -16.9022    4.7409 C   0  0  0  0  0  0  0  0  0  0  0  0
  -45.5534  -16.9131    3.3472 N   0  0  0  0  0  0  0  0  0  0  0  0
  -45.1531  -18.0959    2.7030 C   0  0  0  0  0  0  0  0  0  0  0  0
  -44.9745  -18.0820    1.2391 C   0  0  1  0  0  0  0  0  0  0  0  0
  -43.8077  -17.3651    0.6499 C   0  0  0  0  0  0  0  0  0  0  0  0
  -44.1609  -17.1067   -0.8245 C   0  0  0  0  0  0  0  0  0  0  0  0
  -44.9630  -19.4972    0.6886 C   0  0  0  0  0  0  0  0  0  0  0  0
  -44.3922  -19.5449   -0.7054 C   0  0  0  0  0  0  0  0  0  0  0  0
  -44.8195  -18.3160   -1.4582 C   0  0  1  0  0  0  0  0  0  0  0  0
  -46.2650  -18.2454   -1.4522 N   0  0  0  0  0  0  0  0  0  0  0  0
  -46.9011  -17.6317   -2.9411 S   0  0  1  0  0  0  0  0  0  0  0  0
  -46.9636  -16.1365   -2.8158 O   0  0  0  0  0  0  0  0  0  0  0  0
  -46.0473  -18.0080   -4.1206 O   0  0  0  0  0  0  0  0  0  0  0  0
  -48.5740  -18.2277   -3.1281 C   0  0  0  0  0  0  0  0  0  0  0  0
  -49.0203  -17.9133   -4.5590 C   0  0  0  0  0  0  0  0  0  0  0  0
  2  1  1  1
  2  3  1  0
  2  4  1  0
  4  5  1  0
  5  6  1  0
  4  7  1  0
  7  8  2  0
  7  9  1  0
  9 10  2  0
 10 11  1  0
 11 12  1  0
 11 13  2  0
 13 14  1  0
  9 15  1  0
 14 15  2  0
 15 16  1  0
 16 17  1  0
 17 18  2  0
 18 19  1  0
 19 20  2  0
 20 21  1  0
 21 22  2  0
 17 22  1  0
 22 23  1  0
 23 24  1  0
 23 25  1  0
 26 24  1  1
 25 26  1  0
 26 27  1  0
 27 28  1  0
 26 29  1  0
 29 30  1  0
 30 31  1  0
 28 31  1  0
 31 32  1  0
 33 32  1  1
 33 34  1  0
 34 35  1  0
 33 36  1  0
 36 37  1  0
 37 38  1  0
 35 38  1  0
 38 39  1  1
 39 40  1  0
 40 41  2  0
 40 42  2  0
 40 43  1  6
 43 44  1  0
M  END
$$$$
