7SUC_COM_A_604
     RDKit          3D

  7  6  0  0  0  0  0  0  0  0999 V2000
   24.3749   26.5316  -37.4432 C   0  0  0  0  0  0  0  0  0  0  0  0
   24.5219   27.7861  -38.1870 C   0  0  0  0  0  0  0  0  0  0  0  0
   23.6096   26.7769  -35.8402 S   0  0  0  0  0  0  0  0  0  0  0  0
   25.3285   27.7208  -39.7124 S   0  0  2  0  0  0  0  0  0  0  0  0
   25.1791   29.0700  -40.3814 O   0  0  0  0  0  0  0  0  0  0  0  0
   24.7972   26.7010  -40.6422 O   0  0  0  0  0  0  0  0  0  0  0  0
   26.9443   27.4843  -39.3738 O   0  0  0  0  0  0  0  0  0  0  0  0
  1  2  1  0
  1  3  1  0
  2  4  1  0
  4  5  2  0
  4  6  2  0
  4  7  1  1
M  END
$$$$
