7TOM_5AD_A_605
     RDKit          3D

 18 20  0  0  0  0  0  0  0  0999 V2000
   17.7590   53.7840   27.7210 N   0  0  0  0  0  0  0  0  0  0  0  0
   18.2120   53.3220   28.8960 C   0  0  0  0  0  0  0  0  0  0  0  0
   18.7550   54.0040   29.9170 N   0  0  0  0  0  0  0  0  0  0  0  0
   18.7910   55.3250   29.6510 C   0  0  0  0  0  0  0  0  0  0  0  0
   19.2170   56.3390   30.4800 N   0  0  0  0  0  0  0  0  0  0  0  0
   19.0290   57.4990   29.7760 C   0  0  0  0  0  0  0  0  0  0  0  0
   18.5290   57.3220   28.5760 N   0  0  0  0  0  0  0  0  0  0  0  0
   18.3680   55.9450   28.4850 C   0  0  0  0  0  0  0  0  0  0  0  0
   17.8320   55.1150   27.4740 C   0  0  0  0  0  0  0  0  0  0  0  0
   17.3890   55.5770   26.2920 N   0  0  0  0  0  0  0  0  0  0  0  0
   19.7670   56.2150   31.8310 C   0  0  1  0  0  0  0  0  0  0  0  0
   20.4650   57.4730   32.3540 C   0  0  1  0  0  0  0  0  0  0  0  0
   20.4180   57.2330   33.8740 C   0  0  1  0  0  0  0  0  0  0  0  0
   19.2190   56.2850   34.0640 C   0  0  1  0  0  0  0  0  0  0  0  0
   18.1080   56.8180   34.9510 C   0  0  0  0  0  0  0  0  0  0  0  0
   18.7080   56.0040   32.7380 O   0  0  0  0  0  0  0  0  0  0  0  0
   21.7780   57.5870   31.8160 O   0  0  0  0  0  0  0  0  0  0  0  0
   21.5750   56.5910   34.3860 O   0  0  0  0  0  0  0  0  0  0  0  0
  1  2  2  0
  2  3  1  0
  3  4  2  0
  4  5  1  0
  5  6  1  0
  6  7  2  0
  4  8  1  0
  7  8  1  0
  1  9  1  0
  8  9  2  0
  9 10  1  0
 11  5  1  6
 11 12  1  0
 12 13  1  0
 13 14  1  0
 14 15  1  1
 11 16  1  0
 14 16  1  0
 12 17  1  6
 13 18  1  6
M  END
$$$$
