8BTI_RFO_A_510
     RDKit          3D

 15 16  0  0  0  0  0  0  0  0999 V2000
   15.2564   77.6624   69.8921 C   0  0  0  0  0  0  0  0  0  0  0  0
   13.5571   76.8885   71.1725 C   0  0  0  0  0  0  0  0  0  0  0  0
   13.4775   77.6805   72.3959 C   0  0  0  0  0  0  0  0  0  0  0  0
   13.4540   77.4539   74.8926 C   0  0  0  0  0  0  0  0  0  0  0  0
   13.7041   76.4847   75.8385 C   0  0  0  0  0  0  0  0  0  0  0  0
   14.0584   75.3594   75.1549 C   0  0  0  0  0  0  0  0  0  0  0  0
   14.4095   74.1053   75.6109 C   0  0  0  0  0  0  0  0  0  0  0  0
   14.7291   73.1283   74.6859 C   0  0  0  0  0  0  0  0  0  0  0  0
   14.6959   73.4072   73.3373 C   0  0  0  0  0  0  0  0  0  0  0  0
   14.3371   74.6824   72.9241 C   0  0  0  0  0  0  0  0  0  0  0  0
   14.0106   75.6864   73.8212 C   0  0  0  0  0  0  0  0  0  0  0  0
   13.6416   76.9671   73.6453 N   0  0  0  0  0  0  0  0  0  0  0  0
   13.8954   77.6349   70.0907 O   0  0  0  0  0  0  0  0  0  0  0  0
   13.2844   78.9027   72.4940 O   0  0  0  0  0  0  0  0  0  0  0  0
   14.4486   73.7595   77.3421 Cl  0  0  0  0  0  0  0  0  0  0  0  0
  2  3  1  0
  4  5  2  0
  5  6  1  0
  6  7  1  0
  7  8  2  0
  8  9  1  0
  9 10  2  0
  6 11  2  0
 10 11  1  0
  4 12  1  0
  3 12  1  0
 11 12  1  0
  2 13  1  6
  1 13  1  6
  3 14  2  0
  7 15  1  0
M  END
$$$$
