7ZDY_6MJ_Y_903
     RDKit          3D

 11 11  0  0  0  0  0  0  0  0999 V2000
   28.4950  -10.1510   44.0200 C   0  0  0  0  0  0  0  0  0  0  0  0
   28.1180   -8.7680   44.1800 O   0  0  0  0  0  0  0  0  0  0  0  0
   26.8500   -8.4100   43.5710 C   0  0  1  0  0  0  0  0  0  0  0  0
   26.7500   -6.8730   43.7910 C   0  0  1  0  0  0  0  0  0  0  0  0
   25.7440   -6.1470   42.9440 C   0  0  2  0  0  0  0  0  0  0  0  0
   26.0900   -6.4850   41.4880 C   0  0  1  0  0  0  0  0  0  0  0  0
   25.9460   -8.0130   41.3220 C   0  0  0  0  0  0  0  0  0  0  0  0
   27.0030   -8.6390   42.1250 O   0  0  0  0  0  0  0  0  0  0  0  0
   25.1280   -5.8520   40.6730 O   0  0  0  0  0  0  0  0  0  0  0  0
   26.0110   -4.7280   43.0440 O   0  0  0  0  0  0  0  0  0  0  0  0
   26.3910   -6.5830   45.2020 O   0  0  0  0  0  0  0  0  0  0  0  0
  1  2  1  0
  3  2  1  1
  3  4  1  0
  4  5  1  0
  5  6  1  0
  6  7  1  0
  3  8  1  0
  7  8  1  0
  6  9  1  6
  5 10  1  6
  4 11  1  1
M  END
$$$$
7ZDY_6MJ_W_903
     RDKit          3D

 11 11  0  0  0  0  0  0  0  0999 V2000
   25.1720   16.7970   84.2400 C   0  0  0  0  0  0  0  0  0  0  0  0
   25.1810   15.3430   84.0740 O   0  0  0  0  0  0  0  0  0  0  0  0
   24.1160   14.6340   84.6860 C   0  0  1  0  0  0  0  0  0  0  0  0
   24.3730   13.1060   84.4900 C   0  0  1  0  0  0  0  0  0  0  0  0
   23.4870   12.2380   85.3650 C   0  0  2  0  0  0  0  0  0  0  0  0
   23.7100   12.6560   86.8040 C   0  0  1  0  0  0  0  0  0  0  0  0
   23.2640   14.1250   86.9700 C   0  0  0  0  0  0  0  0  0  0  0  0
   24.1140   14.9440   86.1080 O   0  0  0  0  0  0  0  0  0  0  0  0
   22.8740   11.8610   87.6560 O   0  0  0  0  0  0  0  0  0  0  0  0
   24.0550   10.9250   85.2250 O   0  0  0  0  0  0  0  0  0  0  0  0
   24.0410   12.7540   83.1100 O   0  0  0  0  0  0  0  0  0  0  0  0
  1  2  1  0
  3  2  1  6
  3  4  1  0
  4  5  1  0
  5  6  1  0
  6  7  1  0
  3  8  1  0
  7  8  1  0
  6  9  1  1
  5 10  1  1
  4 11  1  6
M  END
$$$$
