8GFD_ZHR_A_601
     RDKit          3D

 26 28  0  0  0  0  0  0  0  0999 V2000
  -28.6240  -62.2510  -14.0110 C   0  0  0  0  0  0  0  0  0  0  0  0
  -29.6300  -63.2680  -14.4130 C   0  0  0  0  0  0  0  0  0  0  0  0
  -29.4570  -64.4490  -14.2080 O   0  0  0  0  0  0  0  0  0  0  0  0
  -30.7430  -62.8400  -15.0240 N   0  0  0  0  0  0  0  0  0  0  0  0
  -31.8570  -63.6480  -15.4680 C   0  0  2  0  0  0  0  0  0  0  0  0
  -32.1270  -63.4260  -16.9500 C   0  0  1  0  0  0  0  0  0  0  0  0
  -30.9750  -63.7680  -17.7320 O   0  0  0  0  0  0  0  0  0  0  0  0
  -33.3340  -64.2540  -17.3720 C   0  0  2  0  0  0  0  0  0  0  0  0
  -33.7010  -63.9590  -18.7120 O   0  0  0  0  0  0  0  0  0  0  0  0
  -34.5440  -63.9390  -16.4870 C   0  0  1  0  0  0  0  0  0  0  0  0
  -35.7010  -64.8210  -16.7680 C   0  0  0  0  0  0  0  0  0  0  0  0
  -36.8680  -64.4290  -16.0000 O   0  0  0  0  0  0  0  0  0  0  0  0
  -34.1950  -64.2040  -15.1280 O   0  0  0  0  0  0  0  0  0  0  0  0
  -33.1510  -63.3640  -14.6590 C   0  0  1  0  0  0  0  0  0  0  0  0
  -32.9090  -63.6490  -13.3230 O   0  0  0  0  0  0  0  0  0  0  0  0
  -33.7740  -63.0200  -12.3450 C   0  0  0  0  0  0  0  0  0  0  0  0
  -33.3080  -61.6320  -11.9580 C   0  0  0  0  0  0  0  0  0  0  0  0
  -31.8830  -61.4300  -11.4740 C   0  0  0  0  0  0  0  0  0  0  0  0
  -31.2970  -60.1760  -11.5910 C   0  0  0  0  0  0  0  0  0  0  0  0
  -30.0120  -59.8870  -11.1300 C   0  0  0  0  0  0  0  0  0  0  0  0
  -29.3220  -60.9090  -10.5350 C   0  0  0  0  0  0  0  0  0  0  0  0
  -28.0310  -60.8270  -10.1020 O   0  0  0  0  0  0  0  0  0  0  0  0
  -27.7020  -62.1000   -9.4740 C   0  0  0  0  0  0  0  0  0  0  0  0
  -28.8300  -63.0770   -9.7480 C   0  0  0  0  0  0  0  0  0  0  0  0
  -29.8570  -62.1840  -10.4050 C   0  0  0  0  0  0  0  0  0  0  0  0
  -31.1610  -62.4380  -10.8320 C   0  0  0  0  0  0  0  0  0  0  0  0
  1  2  1  0
  2  3  2  0
  2  4  1  0
  5  4  1  1
  5  6  1  0
  6  7  1  6
  6  8  1  0
  8  9  1  6
  8 10  1  0
 10 11  1  6
 11 12  1  0
 10 13  1  0
  5 14  1  0
 13 14  1  0
 14 15  1  1
 15 16  1  0
 16 17  1  0
 17 18  1  0
 18 19  2  0
 19 20  1  0
 20 21  2  0
 21 22  1  0
 22 23  1  0
 23 24  2  0
 21 25  1  0
 24 25  1  0
 18 26  1  0
 25 26  2  0
M  END
$$$$
