
     RDKit          3D

 22 24  0  0  0  0  0  0  0  0999 V2000
   18.6720   20.2278   34.4995 N   0  0  0  0  0  0  0  0  0  0  0  0
   18.4931   19.3194   33.5973 C   0  0  0  0  0  0  0  0  0  0  0  0
   17.3069   19.2564   32.9228 N   0  0  0  0  0  0  0  0  0  0  0  0
   19.5845   18.3386   33.3162 C   0  0  0  0  0  0  0  0  0  0  0  0
   19.3161   17.1363   32.6565 C   0  0  0  0  0  0  0  0  0  0  0  0
   20.3496   16.2285   32.4068 C   0  0  0  0  0  0  0  0  0  0  0  0
   21.6653   16.5085   32.8094 C   0  0  0  0  0  0  0  0  0  0  0  0
   22.7124   15.6037   32.5659 C   0  0  0  0  0  0  0  0  0  0  0  0
   24.0197   15.9018   32.9741 C   0  0  0  0  0  0  0  0  0  0  0  0
   24.2932   17.1203   33.6001 C   0  0  0  0  0  0  0  0  0  0  0  0
   23.2601   18.0258   33.8480 C   0  0  0  0  0  0  0  0  0  0  0  0
   21.9426   17.7321   33.4636 C   0  0  0  0  0  0  0  0  0  0  0  0
   20.8958   18.6352   33.7077 C   0  0  0  0  0  0  0  0  0  0  0  0
   25.1461   14.9581   32.7300 C   0  0  0  0  0  0  0  0  0  0  0  0
   26.1529   15.0680   33.4183 O   0  0  0  0  0  0  0  0  0  0  0  0
   24.9032   14.0121   31.7505 N   0  0  0  0  0  0  0  0  0  0  0  0
   25.8571   13.2775   31.0151 C   0  0  0  0  0  0  0  0  0  0  0  0
   26.7602   13.8495   30.1177 C   0  0  0  0  0  0  0  0  0  0  0  0
   27.6713   13.0485   29.4211 C   0  0  0  0  0  0  0  0  0  0  0  0
   27.6853   11.6694   29.6140 C   0  0  0  0  0  0  0  0  0  0  0  0
   26.7866   11.0880   30.5038 C   0  0  0  0  0  0  0  0  0  0  0  0
   25.8763   11.8883   31.1997 C   0  0  0  0  0  0  0  0  0  0  0  0
  1  2  2  0
  2  3  1  0
  2  4  1  0
  4  5  4  0
  5  6  4  0
  6  7  4  0
  7  8  4  0
  8  9  4  0
  9 10  4  0
 10 11  4  0
  7 12  4  0
 11 12  4  0
  4 13  4  0
 12 13  4  0
  9 14  1  0
 14 15  2  0
 14 16  1  0
 16 17  1  0
 17 18  4  0
 18 19  4  0
 19 20  4  0
 20 21  4  0
 17 22  4  0
 21 22  4  0
M  END
