7LCU_XTA_A_605
     RDKit          3D

 39 43  0  0  0  0  0  0  0  0999 V2000
  -74.7765    1.0281   85.2899 C   0  0  0  0  0  0  0  0  0  0  0  0
  -75.1783    0.5430   86.5222 C   0  0  0  0  0  0  0  0  0  0  0  0
  -72.9834   -0.1710   87.3615 C   0  0  0  0  0  0  0  0  0  0  0  0
  -72.1231   -0.2254   88.4402 C   0  0  0  0  0  0  0  0  0  0  0  0
  -70.7977   -0.5170   88.1968 C   0  0  0  0  0  0  0  0  0  0  0  0
  -69.7852   -0.5960   89.3109 C   0  0  0  0  0  0  0  0  0  0  0  0
  -69.7692    1.7219   88.6800 C   0  0  0  0  0  0  0  0  0  0  0  0
  -69.1718    3.0712   88.9589 C   0  0  0  0  0  0  0  0  0  0  0  0
  -69.2491    3.3326   90.4274 C   0  0  2  0  0  0  0  0  0  0  0  0
  -68.5832    4.6810   90.6697 C   0  0  0  0  0  0  0  0  0  0  0  0
  -68.3284    4.8504   92.1226 C   0  0  0  0  0  0  0  0  0  0  0  0
  -68.5845    2.2395   91.1774 C   0  0  0  0  0  0  0  0  0  0  0  0
  -68.3331    0.9717   90.4624 C   0  0  0  0  0  0  0  0  0  0  0  0
  -70.3727   -0.7433   86.9011 C   0  0  0  0  0  0  0  0  0  0  0  0
  -71.2408   -0.6862   85.8324 C   0  0  0  0  0  0  0  0  0  0  0  0
  -70.8237   -0.9201   84.4551 C   0  0  0  0  0  0  0  0  0  0  0  0
  -71.5521   -0.5106   83.3592 C   0  0  0  0  0  0  0  0  0  0  0  0
  -71.0919   -0.7680   82.0741 C   0  0  0  0  0  0  0  0  0  0  0  0
  -69.9115   -1.4303   81.8348 C   0  0  0  0  0  0  0  0  0  0  0  0
  -80.0579    5.1197   82.9470 C   0  0  0  0  0  0  0  0  0  0  0  0
  -78.1738    3.7809   82.3457 C   0  0  0  0  0  0  0  0  0  0  0  0
  -77.5751    2.4013   82.4304 C   0  0  0  0  0  0  0  0  0  0  0  0
  -79.4084    1.6393   83.9023 C   0  0  0  0  0  0  0  0  0  0  0  0
  -80.1563    2.7499   83.2396 C   0  0  0  0  0  0  0  0  0  0  0  0
  -77.0146    1.3602   84.6643 C   0  0  0  0  0  0  0  0  0  0  0  0
  -69.1783   -1.8425   82.9377 C   0  0  0  0  0  0  0  0  0  0  0  0
  -69.6382   -1.5853   84.2238 C   0  0  0  0  0  0  0  0  0  0  0  0
  -76.5379    0.4949   86.7593 C   0  0  0  0  0  0  0  0  0  0  0  0
  -79.3110    3.9319   83.2348 N   0  0  0  0  0  0  0  0  0  0  0  0
  -77.9733    1.7831   83.7035 N   0  0  0  0  0  0  0  0  0  0  0  0
  -75.6935    1.4209   84.3998 N   0  0  0  0  0  0  0  0  0  0  0  0
  -69.1158    0.6533   89.3415 N   0  0  0  0  0  0  0  0  0  0  0  0
  -72.5308   -0.3961   86.1268 N   0  0  0  0  0  0  0  0  0  0  0  0
  -77.4444    0.9019   85.8333 N   0  0  0  0  0  0  0  0  0  0  0  0
  -74.3337    0.1147   87.5056 O   0  0  0  0  0  0  0  0  0  0  0  0
  -67.1900    5.5533   92.5155 O   0  0  0  0  0  0  0  0  0  0  0  0
  -69.0736    4.4005   93.0229 O   0  0  0  0  0  0  0  0  0  0  0  0
  -72.0440   -0.2328   80.6909 Cl  0  0  0  0  0  0  0  0  0  0  0  0
  -67.6569   -2.6962   82.7365 Cl  0  0  0  0  0  0  0  0  0  0  0  0
  1  2  2  0
  3  4  2  0
  4  5  1  0
  5  6  1  0
  7  8  1  0
  8  9  1  0
  9 10  1  6
 10 11  1  0
  9 12  1  0
 12 13  1  0
  5 14  2  0
 14 15  1  0
 15 16  1  0
 16 17  2  0
 17 18  1  0
 18 19  2  0
 21 22  1  0
 23 24  1  0
 19 26  1  0
 26 27  2  0
 16 27  1  0
  2 28  1  0
 21 29  1  0
 24 29  1  0
 20 29  1  0
 25 30  1  0
 22 30  1  0
 23 30  1  0
  1 31  1  0
 25 31  2  0
  7 32  1  0
 13 32  1  0
  6 32  1  0
 15 33  2  0
  3 33  1  0
 28 34  2  0
 25 34  1  0
  3 35  1  0
  2 35  1  0
 11 36  1  0
 11 37  2  0
 18 38  1  0
 26 39  1  0
M  END
$$$$
