7PA4_C_A_606
     RDKit          3D

 21 22  0  0  0  0  0  0  0  0999 V2000
    4.7266   13.0989   31.8931 O   0  0  0  0  0  0  0  0  0  0  0  0
    5.9316   14.1624   31.3465 P   0  0  1  0  0  0  0  0  0  0  0  0
    6.1739   13.8147   29.8848 O   0  0  0  0  0  0  0  0  0  0  0  0
    5.4315   15.7620   31.3969 O   0  0  0  0  0  0  0  0  0  0  0  0
    7.3523   13.8912   32.2087 O   0  0  0  0  0  0  0  0  0  0  0  0
    7.4555   14.6807   33.3357 C   0  0  0  0  0  0  0  0  0  0  0  0
    8.4676   15.8000   33.2104 C   0  0  1  0  0  0  0  0  0  0  0  0
    8.6862   16.1770   31.8786 O   0  0  0  0  0  0  0  0  0  0  0  0
    7.9355   16.9982   33.9278 C   0  0  1  0  0  0  0  0  0  0  0  0
    8.8139   17.3405   34.9473 O   0  0  0  0  0  0  0  0  0  0  0  0
    8.0381   18.0727   32.8607 C   0  0  1  0  0  0  0  0  0  0  0  0
    8.3770   19.2582   33.4955 O   0  0  0  0  0  0  0  0  0  0  0  0
    9.1431   17.5082   32.0267 C   0  0  2  0  0  0  0  0  0  0  0  0
    9.3802   18.1604   30.7819 N   0  0  0  0  0  0  0  0  0  0  0  0
   10.2794   19.1839   30.7595 C   0  0  0  0  0  0  0  0  0  0  0  0
   10.8609   19.5112   31.8294 O   0  0  0  0  0  0  0  0  0  0  0  0
   10.5457   19.8418   29.6030 N   0  0  0  0  0  0  0  0  0  0  0  0
    9.9097   19.4748   28.4624 C   0  0  0  0  0  0  0  0  0  0  0  0
   10.1691   20.1506   27.2226 N   0  0  0  0  0  0  0  0  0  0  0  0
    8.9894   18.4362   28.4561 C   0  0  0  0  0  0  0  0  0  0  0  0
    8.7429   17.7870   29.6567 C   0  0  0  0  0  0  0  0  0  0  0  0
  2  1  1  1
  2  3  2  0
  2  4  1  0
  2  5  1  0
  5  6  1  0
  7  6  1  6
  7  8  1  0
  7  9  1  0
  9 10  1  1
  9 11  1  0
 11 12  1  1
  8 13  1  0
 11 13  1  0
 13 14  1  6
 14 15  1  0
 15 16  2  0
 15 17  1  0
 17 18  2  0
 18 19  1  0
 18 20  1  0
 14 21  1  0
 20 21  2  0
M  END
$$$$
