7QHL_D5P_A_301
     RDKit          3D

 54 58  0  0  0  0  0  0  0  0999 V2000
   22.1837  -14.7251   41.3135 N   0  0  0  0  0  0  0  0  0  0  0  0
   23.1113  -17.0472   38.2269 N   0  0  0  0  0  0  0  0  0  0  0  0
   22.8075  -15.9172   37.5657 C   0  0  0  0  0  0  0  0  0  0  0  0
   24.3087  -17.2150   39.0278 C   0  0  0  0  0  0  0  0  0  0  0  0
   25.0565  -15.9208   39.1487 C   0  0  0  0  0  0  0  0  0  0  0  0
   26.4375  -15.8883   39.1151 C   0  0  0  0  0  0  0  0  0  0  0  0
   27.1295  -14.6968   39.2252 C   0  0  0  0  0  0  0  0  0  0  0  0
   28.4400  -12.0802   39.6636 C   0  0  0  0  0  0  0  0  0  0  0  0
   25.0477  -13.5431   39.5035 C   0  0  0  0  0  0  0  0  0  0  0  0
   22.7915  -15.8762   36.1577 C   0  0  0  0  0  0  0  0  0  0  0  0
   22.4477  -13.9773   32.9898 C   0  0  1  0  0  0  0  0  0  0  0  0
   21.2476  -14.2246   31.9936 C   0  0  0  0  0  0  0  0  0  0  0  0
   22.5052  -14.6715   35.5059 C   0  0  0  0  0  0  0  0  0  0  0  0
   22.9358  -13.9774   40.2819 C   0  0  0  0  0  0  0  0  0  0  0  0
   22.5374  -12.5322   40.1014 C   0  0  0  0  0  0  0  0  0  0  0  0
   21.8475  -12.2490   38.4258 S   0  0  0  0  0  0  0  0  0  0  0  0
   22.2686  -13.6804   37.5270 C   0  0  0  0  0  0  0  0  0  0  0  0
   22.4894  -14.8096   38.2513 N   0  0  0  0  0  0  0  0  0  0  0  0
   26.4218  -13.5309   39.4527 C   0  0  0  0  0  0  0  0  0  0  0  0
   27.1115  -12.2963   39.5599 N   0  0  0  0  0  4  0  0  0  0  0  0
   28.6214  -10.7260   39.8023 C   0  0  0  0  0  0  0  0  0  0  0  0
   27.3469  -10.1890   39.8181 C   0  0  0  0  0  0  0  0  0  0  0  0
   26.4082  -11.1404   39.6863 N   0  0  0  0  0  0  0  0  0  0  0  0
   24.3689  -14.7379   39.3522 C   0  0  0  0  0  0  0  0  0  0  0  0
   22.9745  -16.7754   35.1793 N   0  0  0  0  0  4  0  0  0  0  0  0
   22.8954  -16.1741   33.9601 N   0  0  0  0  0  0  0  0  0  0  0  0
   22.5904  -14.8961   34.1461 C   0  0  0  0  0  0  0  0  0  0  0  0
   23.4057  -14.1739   31.8227 C   0  0  0  0  0  0  0  0  0  0  0  0
   22.2113  -14.0816   30.8317 C   0  0  0  0  0  0  0  0  0  0  0  0
   22.2404  -13.5371   36.1899 N   0  0  0  0  0  0  0  0  0  0  0  0
   22.5271  -15.6847   41.3559 H   0  0  0  0  0  0  0  0  0  0  0  0
   21.1920  -14.7292   41.0751 H   0  0  0  0  0  0  0  0  0  0  0  0
   22.4853  -17.8043   38.1639 H   0  0  0  0  0  0  0  0  0  0  0  0
   24.9411  -17.9432   38.5644 H   0  0  0  0  0  0  0  0  0  0  0  0
   24.0228  -17.5378   40.0071 H   0  0  0  0  0  0  0  0  0  0  0  0
   26.9622  -16.7702   39.0057 H   0  0  0  0  0  0  0  0  0  0  0  0
   28.1577  -14.6778   39.1390 H   0  0  0  0  0  0  0  0  0  0  0  0
   29.1808  -12.7984   39.6425 H   0  0  0  0  0  0  0  0  0  0  0  0
   24.5261  -12.6653   39.6537 H   0  0  0  0  0  0  0  0  0  0  0  0
   22.4813  -13.0943   33.5930 H   0  0  0  0  0  0  0  0  0  0  0  0
   20.4855  -13.4743   32.0279 H   0  0  0  0  0  0  0  0  0  0  0  0
   20.6263  -15.0906   32.0875 H   0  0  0  0  0  0  0  0  0  0  0  0
   22.7954  -14.4766   39.3460 H   0  0  0  0  0  0  0  0  0  0  0  0
   23.9522  -13.9607   40.6160 H   0  0  0  0  0  0  0  0  0  0  0  0
   23.3990  -11.9119   40.2353 H   0  0  0  0  0  0  0  0  0  0  0  0
   21.7876  -12.2908   40.8256 H   0  0  0  0  0  0  0  0  0  0  0  0
   29.5165  -10.2182   39.8785 H   0  0  0  0  0  0  0  0  0  0  0  0
   27.1427   -9.1825   39.9185 H   0  0  0  0  0  0  0  0  0  0  0  0
   23.3376  -14.7475   39.3915 H   0  0  0  0  0  0  0  0  0  0  0  0
   23.1423  -17.7349   35.3225 H   0  0  0  0  0  0  0  0  0  0  0  0
   23.9038  -15.1209   31.8204 H   0  0  0  0  0  0  0  0  0  0  0  0
   24.2577  -13.5371   31.7067 H   0  0  0  0  0  0  0  0  0  0  0  0
   22.1407  -13.1464   30.3166 H   0  0  0  0  0  0  0  0  0  0  0  0
   22.1504  -14.7391   29.9898 H   0  0  0  0  0  0  0  0  0  0  0  0
  2  3  1  0
  2  4  1  0
  4  5  1  0
  5  6  4  0
  6  7  4  0
  3 10  4  0
 11 12  1  0
 10 13  4  0
  1 14  1  0
 14 15  1  0
 15 16  1  0
 16 17  1  0
 17 18  4  0
  3 18  4  0
  7 19  4  0
  9 19  4  0
 19 20  1  0
  8 20  4  0
  8 21  4  0
 21 22  4  0
 20 23  4  0
 22 23  4  0
  5 24  4  0
  9 24  4  0
 10 25  4  0
 25 26  4  0
 11 27  1  0
 26 27  4  0
 13 27  4  0
 11 28  1  0
 12 29  1  0
 28 29  1  0
 13 30  4  0
 17 30  4  0
  1 31  1  0
  1 32  1  0
  2 33  1  0
  4 34  1  0
  4 35  1  0
  6 36  1  0
  7 37  1  0
  8 38  1  0
  9 39  1  0
 11 40  1  1
 12 41  1  0
 12 42  1  0
 14 43  1  0
 14 44  1  0
 15 45  1  0
 15 46  1  0
 21 47  1  0
 22 48  1  0
 24 49  1  0
 25 50  1  0
 28 51  1  0
 28 52  1  0
 29 53  1  0
 29 54  1  0
M  CHG  2  20   1  25   1
M  END
