6ZK5_IMH_B_401
     RDKit          3D

 33 35  0  0  0  0  0  0  0  0999 V2000
    2.2090   -3.3140   -2.9104 O   0  0  0  0  0  0  0  0  0  0  0  0
    1.0633   -4.0059   -2.4928 C   0  0  0  0  0  0  0  0  0  0  0  0
   -0.1641   -3.5788   -3.3236 C   0  0  2  0  0  0  0  0  0  0  0  0
   -0.1821   -2.1240   -3.5800 N   0  0  0  0  0  0  0  0  0  0  0  0
   -1.4932   -3.9702   -2.6389 C   0  0  2  0  0  0  0  0  0  0  0  0
   -2.3404   -4.6644   -3.5259 O   0  0  0  0  0  0  0  0  0  0  0  0
   -2.0889   -2.6393   -2.1960 C   0  0  2  0  0  0  0  0  0  0  0  0
   -3.4972   -2.6433   -2.1520 O   0  0  0  0  0  0  0  0  0  0  0  0
   -1.5107   -1.6324   -3.1908 C   0  0  1  0  0  0  0  0  0  0  0  0
   -1.4693   -0.2292   -2.6312 C   0  0  0  0  0  0  0  0  0  0  0  0
   -2.1967    0.8686   -3.0902 C   0  0  0  0  0  0  0  0  0  0  0  0
   -1.9301    1.9678   -2.3435 N   0  0  0  0  0  4  0  0  0  0  0  0
   -1.0417    1.5723   -1.4138 C   0  0  0  0  0  0  0  0  0  0  0  0
   -0.4414    2.3073   -0.3925 C   0  0  0  0  0  0  0  0  0  0  0  0
   -0.7057    3.6604   -0.1930 O   0  0  0  0  0  0  0  0  0  0  0  0
    0.4329    1.6548    0.4286 N   0  0  0  0  0  0  0  0  0  0  0  0
    0.7154    0.3239    0.2616 C   0  0  0  0  0  0  0  0  0  0  0  0
    0.1227   -0.3899   -0.7408 N   0  0  0  0  0  0  0  0  0  0  0  0
   -0.7449    0.2522   -1.5597 C   0  0  0  0  0  0  0  0  0  0  0  0
    2.9528   -3.6452   -2.3433 H   0  0  0  0  0  0  0  0  0  0  0  0
    0.8696   -3.7958   -1.4170 H   0  0  0  0  0  0  0  0  0  0  0  0
    1.2214   -5.1016   -2.6101 H   0  0  0  0  0  0  0  0  0  0  0  0
   -0.0828   -4.0974   -4.3046 H   0  0  0  0  0  0  0  0  0  0  0  0
    0.5650   -1.6408   -3.0286 H   0  0  0  0  0  0  0  0  0  0  0  0
   -1.3288   -4.6190   -1.7500 H   0  0  0  0  0  0  0  0  0  0  0  0
   -2.4456   -4.1169   -4.3479 H   0  0  0  0  0  0  0  0  0  0  0  0
   -1.7109   -2.4197   -1.1733 H   0  0  0  0  0  0  0  0  0  0  0  0
   -3.8457   -2.6714   -3.0801 H   0  0  0  0  0  0  0  0  0  0  0  0
   -2.1360   -1.6188   -4.1110 H   0  0  0  0  0  0  0  0  0  0  0  0
   -2.8866    0.8611   -3.9241 H   0  0  0  0  0  0  0  0  0  0  0  0
   -2.3407    2.9185   -2.4728 H   0  0  0  0  0  0  0  0  0  0  0  0
   -1.3477    4.1752   -0.7825 H   0  0  0  0  0  0  0  0  0  0  0  0
    1.4121   -0.1649    0.9285 H   0  0  0  0  0  0  0  0  0  0  0  0
  1  2  1  0
  3  2  1  0
  3  4  1  0
  3  5  1  0
  5  6  1  0
  5  7  1  0
  7  8  1  0
  4  9  1  0
  7  9  1  0
  9 10  1  0
 10 11  4  0
 11 12  4  0
 12 13  4  0
 13 14  4  0
 14 15  1  0
 14 16  4  0
 16 17  4  0
 17 18  4  0
 10 19  4  0
 13 19  4  0
 18 19  4  0
  1 20  1  0
  2 21  1  0
  2 22  1  0
  3 23  1  1
  4 24  1  0
  5 25  1  6
  6 26  1  0
  7 27  1  6
  8 28  1  0
  9 29  1  1
 11 30  1  0
 12 31  1  0
 15 32  1  0
 17 33  1  0
M  CHG  1  12   1
M  END
