
     RDKit          3D

 26 27  0  0  0  0  0  0  0  0999 V2000
   -1.0336    9.2668  -23.2706 N   0  0  0  0  0  0  0  0  0  0  0  0
    0.0252    8.5664  -23.7067 C   0  0  0  0  0  0  0  0  0  0  0  0
   -0.2330    7.2785  -24.4202 C   0  0  0  0  0  0  0  0  0  0  0  0
    1.3013    8.9708  -23.5641 N   0  0  0  0  0  0  0  0  0  0  0  0
    1.5125   10.1259  -22.9320 C   0  0  0  0  0  0  0  0  0  0  0  0
    2.8564   10.4542  -22.7323 N   0  0  0  0  0  0  0  0  0  0  0  0
    0.4935   10.9325  -22.4687 C   0  0  0  0  0  0  0  0  0  0  0  0
   -0.7795   10.4312  -22.6558 C   0  0  0  0  0  0  0  0  0  0  0  0
    0.7294   12.2848  -21.8744 C   0  0  0  0  0  0  0  0  0  0  0  0
    1.4044   12.1820  -20.5644 N   0  0  0  0  0  4  0  0  0  0  0  0
    2.6724   12.5453  -20.4308 C   0  0  0  0  0  0  0  0  0  0  0  0
    3.2242   12.3166  -18.8301 S   0  0  0  0  0  0  0  0  0  0  0  0
    1.6964   11.7102  -18.3290 C   0  0  0  0  0  0  0  0  0  0  0  0
    0.8051   11.7352  -19.3888 C   0  0  0  0  0  0  0  0  0  0  0  0
   -0.6313   11.3593  -19.3753 C   0  0  0  0  0  0  0  0  0  0  0  0
    1.5016   11.2558  -16.9130 C   0  0  0  0  0  0  0  0  0  0  0  0
    2.6793   11.6256  -16.0180 C   0  0  0  0  0  0  0  0  0  0  0  0
    2.9846   10.5185  -15.1901 O   0  0  0  0  0  0  0  0  0  0  0  0
    3.6805    9.2480  -15.8843 P   0  0  2  0  0  5  0  0  0  0  0  0
    3.9758    9.4053  -17.3382 O   0  0  0  0  0  0  0  0  0  0  0  0
    2.5801    8.1045  -15.6456 O   0  0  0  0  0  0  0  0  0  0  0  0
    4.8657    8.7995  -14.9364 O   0  0  0  0  0  0  0  0  0  0  0  0
    5.7701    9.7719  -14.0857 P   0  0  0  0  0  5  0  0  0  0  0  0
    7.1680   10.0086  -14.5265 O   0  0  0  0  0  0  0  0  0  0  0  0
    4.9591   11.1471  -13.9576 O   0  0  0  0  0  0  0  0  0  0  0  0
    5.6050    9.2244  -12.5957 O   0  0  0  0  0  0  0  0  0  0  0  0
  1  2  4  0
  2  3  1  0
  2  4  4  0
  4  5  4  0
  5  6  1  0
  5  7  4  0
  1  8  4  0
  7  8  4  0
  7  9  1  0
  9 10  1  0
 10 11  4  0
 11 12  4  0
 12 13  4  0
 10 14  4  0
 13 14  4  0
 14 15  1  0
 13 16  1  0
 16 17  1  0
 17 18  1  0
 19 18  1  0
 19 20  2  0
 19 21  1  6
 19 22  1  0
 22 23  1  0
 23 24  2  0
 23 25  1  0
 23 26  1  0
M  CHG  1  10   1
M  END
