
     RDKit          3D

  7  6  0  0  0  0  0  0  0  0999 V2000
   30.2243    7.6600    9.7097 C   0  0  0  0  0  0  0  0  0  0  0  0
   31.5265    7.5270   10.5065 C   0  0  0  0  0  0  0  0  0  0  0  0
   32.6681    8.3753    9.9557 C   0  0  0  0  0  0  0  0  0  0  0  0
   32.3311    9.8563    9.8785 C   0  0  0  0  0  0  0  0  0  0  0  0
   32.7863   10.5191   11.0510 O   0  0  0  0  0  0  0  0  0  0  0  0
   31.9343    6.1530   10.4667 O   0  0  0  0  0  0  0  0  0  0  0  0
   30.4389    7.1018    8.4101 O   0  0  0  0  0  0  0  0  0  0  0  0
  1  2  1  0
  2  3  1  0
  3  4  1  0
  4  5  1  0
  2  6  1  0
  1  7  1  0
M  END
