7S45_ACO_A_202
     RDKit          3D

 51 53  0  0  0  0  0  0  0  0999 V2000
  -28.0140  -37.1050   38.4460 N   0  0  0  0  0  0  0  0  0  0  0  0
  -28.8880  -38.0690   38.7730 C   0  0  0  0  0  0  0  0  0  0  0  0
  -28.6100  -39.1580   39.5190 N   0  0  0  0  0  0  0  0  0  0  0  0
  -27.3590  -39.2760   39.9700 C   0  0  0  0  0  0  0  0  0  0  0  0
  -26.3340  -38.2850   39.6470 C   0  0  0  0  0  0  0  0  0  0  0  0
  -26.7510  -37.1580   38.8360 C   0  0  0  0  0  0  0  0  0  0  0  0
  -25.8760  -36.2070   38.4780 N   0  0  0  0  0  0  0  0  0  0  0  0
  -25.1720  -38.6440   40.2230 N   0  0  0  0  0  0  0  0  0  0  0  0
  -25.4430  -39.7940   40.8930 C   0  0  0  0  0  0  0  0  0  0  0  0
  -26.7240  -40.1500   40.7200 N   0  0  0  0  0  0  0  0  0  0  0  0
  -27.3870  -41.3370   41.2820 C   0  0  1  0  0  0  0  0  0  0  0  0
  -26.6890  -42.5780   40.8160 C   0  0  2  0  0  0  0  0  0  0  0  0
  -27.3000  -43.0740   39.6100 O   0  0  0  0  0  0  0  0  0  0  0  0
  -26.8140  -43.5280   42.0150 C   0  0  2  0  0  0  0  0  0  0  0  0
  -28.0740  -44.1780   41.9130 O   0  0  0  0  0  0  0  0  0  0  0  0
  -28.2940  -45.6410   42.6150 P   0  0  0  0  0  0  0  0  0  0  0  0
  -27.3180  -46.5430   41.9500 O   0  0  0  0  0  0  0  0  0  0  0  0
  -29.7220  -45.8390   42.2950 O   0  0  0  0  0  0  0  0  0  0  0  0
  -27.9430  -45.4950   44.0740 O   0  0  0  0  0  0  0  0  0  0  0  0
  -26.8350  -42.5830   43.2000 C   0  0  2  0  0  0  0  0  0  0  0  0
  -27.1610  -41.2740   42.6800 O   0  0  0  0  0  0  0  0  0  0  0  0
  -25.4970  -42.5160   43.8910 C   0  0  0  0  0  0  0  0  0  0  0  0
  -24.4840  -42.3710   42.8890 O   0  0  0  0  0  0  0  0  0  0  0  0
  -22.9700  -42.2020   43.2960 P   0  0  2  0  0  0  0  0  0  0  0  0
  -22.1510  -42.2300   42.0190 O   0  0  0  0  0  0  0  0  0  0  0  0
  -22.6710  -43.1860   44.4360 O   0  0  0  0  0  0  0  0  0  0  0  0
  -23.0060  -40.8190   43.9590 O   0  0  0  0  0  0  0  0  0  0  0  0
  -21.6780  -39.9750   44.2180 P   0  0  2  0  0  0  0  0  0  0  0  0
  -20.4590  -40.8590   44.1190 O   0  0  0  0  0  0  0  0  0  0  0  0
  -22.1290  -39.2140   45.3610 O   0  0  0  0  0  0  0  0  0  0  0  0
  -21.5860  -38.8720   43.0190 O   0  0  0  0  0  0  0  0  0  0  0  0
  -22.1870  -36.7070   42.1420 C   0  0  0  0  0  0  0  0  0  0  0  0
  -22.5580  -37.8940   42.9940 C   0  0  0  0  0  0  0  0  0  0  0  0
  -23.5000  -35.9330   42.1230 C   0  0  0  0  0  0  0  0  0  0  0  0
  -21.0930  -35.8010   42.6830 C   0  0  0  0  0  0  0  0  0  0  0  0
  -21.7690  -37.0900   40.6800 C   0  0  1  0  0  0  0  0  0  0  0  0
  -22.5440  -38.1600   40.1290 O   0  0  0  0  0  0  0  0  0  0  0  0
  -21.8670  -35.9350   39.7130 C   0  0  0  0  0  0  0  0  0  0  0  0
  -22.9360  -35.6450   39.1710 O   0  0  0  0  0  0  0  0  0  0  0  0
  -20.7270  -35.2720   39.5410 N   0  0  0  0  0  0  0  0  0  0  0  0
  -20.6020  -34.1200   38.6520 C   0  0  0  0  0  0  0  0  0  0  0  0
  -19.6840  -34.4350   37.4750 C   0  0  0  0  0  0  0  0  0  0  0  0
  -19.5080  -33.2340   36.5650 C   0  0  0  0  0  0  0  0  0  0  0  0
  -20.5140  -32.6120   36.1770 O   0  0  0  0  0  0  0  0  0  0  0  0
  -18.2560  -32.9440   36.2160 N   0  0  0  0  0  0  0  0  0  0  0  0
  -17.9270  -31.8500   35.3080 C   0  0  0  0  0  0  0  0  0  0  0  0
  -16.4450  -31.4940   35.3990 C   0  0  0  0  0  0  0  0  0  0  0  0
  -15.9300  -30.5330   34.0040 S   0  0  0  0  0  0  0  0  0  0  0  0
  -15.6800  -31.7900   32.8830 C   0  0  0  0  0  0  0  0  0  0  0  0
  -15.8400  -32.9550   33.2300 O   0  0  0  0  0  0  0  0  0  0  0  0
  -15.1350  -31.4700   31.5170 C   0  0  0  0  0  0  0  0  0  0  0  0
  1  2  2  0
  2  3  1  0
  3  4  2  0
  4  5  1  0
  1  6  1  0
  5  6  2  0
  6  7  1  0
  5  8  1  0
  8  9  2  0
  4 10  1  0
  9 10  1  0
 11 10  1  6
 11 12  1  0
 12 13  1  6
 12 14  1  0
 14 15  1  6
 15 16  1  0
 16 17  2  0
 16 18  1  0
 16 19  1  0
 14 20  1  0
 11 21  1  0
 20 21  1  0
 20 22  1  6
 22 23  1  0
 23 24  1  0
 24 25  2  0
 24 26  1  1
 24 27  1  0
 27 28  1  0
 28 29  2  0
 28 30  1  1
 28 31  1  0
 31 33  1  0
 32 33  1  0
 32 34  1  0
 32 35  1  0
 32 36  1  0
 36 37  1  6
 36 38  1  0
 38 39  2  0
 38 40  1  0
 40 41  1  0
 41 42  1  0
 42 43  1  0
 43 44  2  0
 43 45  1  0
 45 46  1  0
 46 47  1  0
 47 48  1  0
 48 49  1  0
 49 50  2  0
 49 51  1  0
M  END
$$$$
