
     RDKit          3D

 13 14  0  0  0  0  0  0  0  0999 V2000
  -24.5607   13.8403   29.6037 C   0  0  0  0  0  0  0  0  0  0  0  0
  -23.5320   13.0817   28.9425 N   0  0  0  0  0  0  0  0  0  0  0  0
  -23.6732   12.6504   27.6348 C   0  0  0  0  0  0  0  0  0  0  0  0
  -22.4355   12.5380   26.8709 C   0  0  0  0  0  0  0  0  0  0  0  0
  -21.3350   13.3713   26.8917 C   0  0  0  0  0  0  0  0  0  0  0  0
  -20.3116   12.9645   25.9953 C   0  0  0  0  0  0  0  0  0  0  0  0
  -20.6118   11.8028   25.3351 C   0  0  0  0  0  0  0  0  0  0  0  0
  -22.1657   11.2315   25.7709 S   0  0  0  0  0  0  0  0  0  0  0  0
  -19.1440   13.6244   25.8065 O   0  0  0  0  0  0  0  0  0  0  0  0
  -19.2218   14.9484   26.3658 C   0  0  0  0  0  0  0  0  0  0  0  0
  -19.8925   14.9455   27.7438 C   0  0  0  0  0  0  0  0  0  0  0  0
  -21.2490   14.4770   27.6722 O   0  0  0  0  0  0  0  0  0  0  0  0
  -24.7861   12.3959   27.1784 O   0  0  0  0  0  0  0  0  0  0  0  0
  1  2  1  0
  2  3  1  0
  3  4  1  0
  4  5  4  0
  5  6  4  0
  6  7  4  0
  7  8  4  0
  4  8  4  0
  6  9  1  0
  9 10  1  0
 10 11  1  0
  5 12  1  0
 11 12  1  0
  3 13  2  0
M  END
