8D39_QDB_A_501
     RDKit          3D

 17 18  0  0  0  0  0  0  0  0999 V2000
    8.9584  -17.0481    2.4091 C   0  0  0  0  0  0  0  0  0  0  0  0
    8.4680  -15.7682    2.4411 C   0  0  0  0  0  0  0  0  0  0  0  0
    7.2173  -15.4756    1.9049 C   0  0  0  0  0  0  0  0  0  0  0  0
    6.4067  -16.4108    1.3224 C   0  0  0  0  0  0  0  0  0  0  0  0
    6.9558  -17.7150    1.3135 C   0  0  0  0  0  0  0  0  0  0  0  0
    8.1843  -18.0053    1.8396 C   0  0  0  0  0  0  0  0  0  0  0  0
    5.1079  -16.2227    0.7445 C   0  0  0  0  0  0  0  0  0  0  0  0
    4.4297  -15.0493    0.2975 C   0  0  0  0  0  0  0  0  0  0  0  0
    3.1277  -14.8661   -0.0301 C   0  0  0  0  0  0  0  0  0  0  0  0
    2.5880  -13.6741   -0.5136 C   0  0  0  0  0  0  0  0  0  0  0  0
    3.4049  -12.5730   -0.6922 C   0  0  0  0  0  0  0  0  0  0  0  0
    4.7295  -12.7242   -0.3685 C   0  0  0  0  0  0  0  0  0  0  0  0
    5.2504  -13.8998    0.1090 C   0  0  0  0  0  0  0  0  0  0  0  0
    2.8496  -11.3071   -1.2102 C   0  0  0  0  0  0  0  0  0  0  0  0
    4.4210  -17.3158    0.6038 O   0  0  0  0  0  0  0  0  0  0  0  0
    1.6122  -11.2228   -1.4652 O   0  0  0  0  0  0  0  0  0  0  0  0
    3.7351  -10.2532   -1.4018 O   0  0  0  0  0  0  0  0  0  0  0  0
  1  2  2  0
  2  3  1  0
  3  4  2  0
  4  5  1  0
  5  6  2  0
  1  6  1  0
  4  7  1  0
  7  8  1  0
  8  9  2  0
  9 10  1  0
 10 11  2  0
 11 12  1  0
 12 13  2  0
  8 13  1  0
 11 14  1  0
  7 15  2  0
 14 16  2  0
 14 17  1  0
M  END
$$$$
