1MMV_3AR_B_2785
     RDKit          3D

 15 14  0  0  0  0  0  0  0  0999 V2000
    9.7342   -0.4332   59.4231 N   0  0  0  0  0  0  0  0  0  0  0  0
    9.5301   -1.4703   58.4617 C   0  0  2  0  0  0  0  0  0  0  0  0
   10.3626   -1.2644   57.2521 C   0  0  0  0  0  0  0  0  0  0  0  0
   10.9244   -0.1504   57.0300 O   0  0  0  0  0  0  0  0  0  0  0  0
    8.1024   -1.6846   58.0508 C   0  0  0  0  0  0  0  0  0  0  0  0
    7.1967   -2.0509   59.2083 C   0  0  0  0  0  0  0  0  0  0  0  0
    5.7418   -1.8848   58.8086 C   0  0  0  0  0  0  0  0  0  0  0  0
    5.3929   -3.0385   57.9857 N   0  0  0  0  0  0  0  0  0  0  0  0
    4.0546   -3.1671   57.4975 C   0  0  0  0  0  0  0  0  0  0  0  0
    3.6829   -4.2236   56.6247 N   0  0  0  0  0  0  0  0  0  0  0  0
    3.1753   -2.3344   57.8492 N   0  0  0  0  0  0  0  0  0  0  0  0
    2.3835   -4.7603   56.4680 C   0  0  0  0  0  0  0  0  0  0  0  0
    1.8305   -5.6957   57.4684 C   0  0  0  0  0  0  0  0  0  0  0  0
    0.5067   -6.2876   57.0800 C   0  0  0  0  0  0  0  0  0  0  0  0
   10.5106   -2.3384   56.3588 O   0  0  0  0  0  0  0  0  0  0  0  0
  2  1  1  1
  2  3  1  0
  3  4  2  0
  2  5  1  0
  5  6  1  0
  6  7  1  0
  7  8  1  0
  8  9  1  0
  9 10  1  0
  9 11  2  0
 10 12  1  0
 12 13  1  0
 13 14  1  0
  3 15  1  0
M  CHG  1  11   1
M  END
$$$$
