1MMV_3AR_B_2785
     RDKit          3D

 15 14  0  0  0  0  0  0  0  0999 V2000
   -3.6102   21.5938   17.3108 N   0  0  0  0  0  0  0  0  0  0  0  0
   -4.3305   20.4525   17.7801 C   0  0  2  0  0  0  0  0  0  0  0  0
   -4.0404   20.1734   19.2072 C   0  0  0  0  0  0  0  0  0  0  0  0
   -4.8281   19.4685   19.9061 O   0  0  0  0  0  0  0  0  0  0  0  0
   -4.1291   19.1996   16.9786 C   0  0  0  0  0  0  0  0  0  0  0  0
   -3.9739   19.4589   15.4944 C   0  0  0  0  0  0  0  0  0  0  0  0
   -4.7054   18.3946   14.6967 C   0  0  0  0  0  0  0  0  0  0  0  0
   -3.8730   17.1962   14.7239 N   0  0  0  0  0  0  0  0  0  0  0  0
   -4.3696   15.9894   14.1383 C   0  0  0  0  0  0  0  0  0  0  0  0
   -3.5462   14.8412   13.9970 N   0  0  0  0  0  0  0  0  0  0  0  0
   -5.5653   15.9295   13.7422 N   0  0  0  0  0  0  0  0  0  0  0  0
   -3.8750   13.6582   13.2947 C   0  0  0  0  0  0  0  0  0  0  0  0
   -2.9273   12.5266   13.2424 C   0  0  0  0  0  0  0  0  0  0  0  0
   -3.4063   11.3709   12.4125 C   0  0  0  0  0  0  0  0  0  0  0  0
   -2.8684   20.7129   19.7631 O   0  0  0  0  0  0  0  0  0  0  0  0
  2  1  1  6
  2  3  1  0
  3  4  2  0
  2  5  1  0
  5  6  1  0
  6  7  1  0
  7  8  1  0
  8  9  1  0
  9 10  1  0
  9 11  2  0
 10 12  1  0
 12 13  1  0
 13 14  1  0
  3 15  1  0
M  CHG  1  11   1
M  END
$$$$
