1GPK_HUP_A_1540
     RDKit          3D

 36 38  0  0  0  0  0  0  0  0999 V2000
    4.1229   69.0953   60.6108 C   0  0  0  0  0  0  0  0  0  0  0  0
    4.6075   69.9549   59.8273 O   0  0  0  0  0  0  0  0  0  0  0  0
    4.9283   68.1539   61.1713 N   0  0  0  0  0  0  0  0  0  0  0  0
    2.7626   69.1159   60.9064 C   0  0  0  0  0  0  0  0  0  0  0  0
    2.2317   68.1587   61.7671 C   0  0  0  0  0  0  0  0  0  0  0  0
    3.0515   67.1565   62.3225 C   0  0  0  0  0  0  0  0  0  0  0  0
    4.4470   67.2081   62.0304 C   0  0  0  0  0  0  0  0  0  0  0  0
    5.4210   66.1930   62.6014 C   0  0  1  0  0  0  0  0  0  0  0  0
    4.8605   65.4479   63.8201 C   0  0  1  0  0  0  0  0  0  0  0  0
    4.8216   66.3738   65.0189 C   0  0  0  0  0  0  0  0  0  0  0  0
    4.2330   62.6089   63.0499 C   0  0  2  0  0  0  0  0  0  0  0  0
    3.2136   63.7114   63.0372 C   0  0  0  0  0  0  0  0  0  0  0  0
    3.4729   64.9785   63.4506 C   0  0  0  0  0  0  0  0  0  0  0  0
    2.4826   66.1351   63.3276 C   0  0  2  0  0  0  0  0  0  0  0  0
    1.1532   65.6599   62.8977 N   0  0  0  0  0  0  0  0  0  0  0  0
    2.3715   66.8008   64.7252 C   0  0  2  0  0  0  0  0  0  0  0  0
    3.7152   67.0560   65.3848 C   0  0  0  0  0  0  0  0  0  0  0  0
    3.7881   67.9970   66.5552 C   0  0  1  0  0  0  0  0  0  0  0  0
    5.9478   68.1630   60.9382 H   0  0  0  0  0  0  0  0  0  0  0  0
    2.1187   69.8747   60.4785 H   0  0  0  0  0  0  0  0  0  0  0  0
    1.1802   68.2246   62.0022 H   0  0  0  0  0  0  0  0  0  0  0  0
    5.6584   65.4555   61.8043 H   0  0  0  0  0  0  0  0  0  0  0  0
    6.3726   66.6980   62.8783 H   0  0  0  0  0  0  0  0  0  0  0  0
    5.5385   64.6078   64.0768 H   0  0  0  0  0  0  0  0  0  0  0  0
    5.7578   66.5606   65.5391 H   0  0  0  0  0  0  0  0  0  0  0  0
    5.0021   62.7884   62.2695 H   0  0  0  0  0  0  0  0  0  0  0  0
    3.7371   61.6388   62.8362 H   0  0  0  0  0  0  0  0  0  0  0  0
    4.7127   62.5442   64.0491 H   0  0  0  0  0  0  0  0  0  0  0  0
    2.2342   63.4430   62.6587 H   0  0  0  0  0  0  0  0  0  0  0  0
    0.4420   66.4134   63.0279 H   0  0  0  0  0  0  0  0  0  0  0  0
    0.8349   64.9011   63.5445 H   0  0  0  0  0  0  0  0  0  0  0  0
    1.7885   66.1416   65.4047 H   0  0  0  0  0  0  0  0  0  0  0  0
    1.8134   67.7589   64.6388 H   0  0  0  0  0  0  0  0  0  0  0  0
    3.8872   67.4201   67.4991 H   0  0  0  0  0  0  0  0  0  0  0  0
    4.6663   68.6672   66.4420 H   0  0  0  0  0  0  0  0  0  0  0  0
    2.8729   68.6224   66.6215 H   0  0  0  0  0  0  0  0  0  0  0  0
  1  2  2  0
  1  3  1  0
  1  4  1  0
  4  5  2  0
  5  6  1  0
  3  7  1  0
  6  7  2  0
  7  8  1  0
  9  8  1  0
  9 10  1  0
 11 12  1  0
  9 13  1  0
 12 13  2  0
  6 14  1  0
 13 14  1  0
 14 15  1  6
 14 16  1  0
 10 17  2  0
 16 17  1  0
 17 18  1  0
  3 19  1  0
  4 20  1  0
  5 21  1  0
  8 22  1  6
  8 23  1  0
  9 24  1  1
 10 25  1  0
 11 26  1  6
 11 27  1  0
 11 28  1  0
 12 29  1  0
 15 30  1  0
 15 31  1  0
 16 32  1  1
 16 33  1  0
 18 34  1  1
 18 35  1  0
 18 36  1  0
M  END
