5S8I_2LY_A_1501
     RDKit          3D

 13 14  0  0  0  0  0  0  0  0999 V2000
  -24.0230   15.1580   30.4680 C   0  0  0  0  0  0  0  0  0  0  0  0
  -23.3730   14.3100   29.4720 N   0  0  0  0  0  0  0  0  0  0  0  0
  -24.0070   13.6040   28.5280 C   0  0  0  0  0  0  0  0  0  0  0  0
  -23.1240   13.0960   27.4630 C   0  0  0  0  0  0  0  0  0  0  0  0
  -21.7090   13.2850   27.2510 C   0  0  0  0  0  0  0  0  0  0  0  0
  -21.2540   12.6660   26.0410 C   0  0  0  0  0  0  0  0  0  0  0  0
  -22.2470   11.9820   25.3890 C   0  0  0  0  0  0  0  0  0  0  0  0
  -23.7960   12.1810   26.1650 S   0  0  0  0  0  0  0  0  0  0  0  0
  -19.9520   12.7840   25.5900 O   0  0  0  0  0  0  0  0  0  0  0  0
  -19.2620   13.8770   26.2520 C   0  0  0  0  0  0  0  0  0  0  0  0
  -19.4800   13.8690   27.7260 C   0  0  0  0  0  0  0  0  0  0  0  0
  -20.8770   14.0180   28.0890 O   0  0  0  0  0  0  0  0  0  0  0  0
  -25.2370   13.4280   28.4700 O   0  0  0  0  0  0  0  0  0  0  0  0
  1  2  1  0
  2  3  1  0
  3  4  1  0
  4  5  2  0
  5  6  1  0
  6  7  2  0
  7  8  1  0
  4  8  1  0
  6  9  1  0
  9 10  1  0
 10 11  1  0
  5 12  1  0
 11 12  1  0
  3 13  2  0
M  END
$$$$
