1S3V_TQD_A_187
     RDKit          3D

 56 58  0  0  0  0  0  0  0  0999 V2000
   -0.8805   29.9948    0.2771 C   0  0  1  0  0  0  0  0  0  0  0  0
    0.8363   29.1677    1.6166 C   0  0  0  0  0  0  0  0  0  0  0  0
   -0.0407   28.1864    2.1132 C   0  0  0  0  0  0  0  0  0  0  0  0
    0.4057   27.3264    3.3358 C   0  0  0  0  0  0  0  0  0  0  0  0
   -0.4784   26.0632    3.4917 C   0  0  2  0  0  0  0  0  0  0  0  0
   -1.9755   26.4399    3.3793 C   0  0  0  0  0  0  0  0  0  0  0  0
   -2.4029   27.2296    2.0899 C   0  0  0  0  0  0  0  0  0  0  0  0
   -1.3572   28.1667    1.6267 C   0  0  0  0  0  0  0  0  0  0  0  0
   -0.0836   25.3822    4.8492 C   0  0  0  0  0  0  0  0  0  0  0  0
   -2.5188   24.7965    4.9907 C   0  0  0  0  0  0  0  0  0  0  0  0
   -3.1426   25.9862    5.3086 C   0  0  0  0  0  0  0  0  0  0  0  0
   -4.4490   26.2735    4.9151 C   0  0  0  0  0  0  0  0  0  0  0  0
   -6.2938   27.9207    4.8043 C   0  0  0  0  0  0  0  0  0  0  0  0
   -5.1147   25.3500    4.1719 C   0  0  0  0  0  0  0  0  0  0  0  0
   -7.1992   26.4950    4.0586 C   0  0  0  0  0  0  0  0  0  0  0  0
   -4.5310   24.1214    3.8377 C   0  0  0  0  0  0  0  0  0  0  0  0
   -6.6189   23.6040    2.6980 C   0  0  0  0  0  0  0  0  0  0  0  0
   -3.2260   23.8520    4.2325 C   0  0  0  0  0  0  0  0  0  0  0  0
   -1.7984   29.1312    0.7255 N   0  0  0  0  0  0  0  0  0  0  0  0
   -1.4039   30.9379   -0.5470 N   0  0  0  0  0  0  0  0  0  0  0  0
    0.4229   30.0782    0.7181 N   0  0  0  0  0  0  0  0  0  0  0  0
    2.1348   29.2137    2.0070 N   0  0  0  0  0  0  0  0  0  0  0  0
   -1.1857   24.6018    5.4229 N   0  0  0  0  0  0  0  0  0  0  0  0
   -5.0077   27.5115    5.2563 O   0  0  0  0  0  0  0  0  0  0  0  0
   -6.3890   25.3843    3.6678 O   0  0  0  0  0  0  0  0  0  0  0  0
   -5.2732   23.2311    3.0917 O   0  0  0  0  0  0  0  0  0  0  0  0
   -0.8837   23.5871    6.4505 C   0  0  0  0  0  0  0  0  0  0  0  0
   -0.1041   29.3204   -0.0182 H   0  0  0  0  0  0  0  0  0  0  0  0
    1.4226   27.0245    3.1961 H   0  0  0  0  0  0  0  0  0  0  0  0
    0.3037   27.9199    4.2202 H   0  0  0  0  0  0  0  0  0  0  0  0
   -0.3139   25.3548    2.7069 H   0  0  0  0  0  0  0  0  0  0  0  0
   -2.5424   25.5329    3.4082 H   0  0  0  0  0  0  0  0  0  0  0  0
   -2.1626   27.1062    4.1954 H   0  0  0  0  0  0  0  0  0  0  0  0
   -2.6046   26.5271    1.3084 H   0  0  0  0  0  0  0  0  0  0  0  0
   -3.2705   27.8059    2.3345 H   0  0  0  0  0  0  0  0  0  0  0  0
    0.7470   24.7298    4.6779 H   0  0  0  0  0  0  0  0  0  0  0  0
    0.1645   26.1572    5.5439 H   0  0  0  0  0  0  0  0  0  0  0  0
   -2.6230   26.6887    5.8576 H   0  0  0  0  0  0  0  0  0  0  0  0
   -6.5126   28.8959    5.1865 H   0  0  0  0  0  0  0  0  0  0  0  0
   -6.3045   27.9461    3.7346 H   0  0  0  0  0  0  0  0  0  0  0  0
   -7.0313   27.2277    5.1518 H   0  0  0  0  0  0  0  0  0  0  0  0
   -8.1642   26.4097    3.6043 H   0  0  0  0  0  0  0  0  0  0  0  0
   -7.3056   26.5019    5.1233 H   0  0  0  0  0  0  0  0  0  0  0  0
   -6.7343   27.4049    3.7408 H   0  0  0  0  0  0  0  0  0  0  0  0
   -7.0566   22.8108    2.1287 H   0  0  0  0  0  0  0  0  0  0  0  0
   -7.2094   23.7837    3.5720 H   0  0  0  0  0  0  0  0  0  0  0  0
   -6.5831   24.4926    2.1029 H   0  0  0  0  0  0  0  0  0  0  0  0
   -2.7788   22.9600    3.9688 H   0  0  0  0  0  0  0  0  0  0  0  0
   -2.7374   29.1756    0.4331 H   0  0  0  0  0  0  0  0  0  0  0  0
   -2.1264   31.4597   -0.0509 H   0  0  0  0  0  0  0  0  0  0  0  0
   -0.6665   31.5768   -0.8441 H   0  0  0  0  0  0  0  0  0  0  0  0
    2.4748   28.5634    2.6634 H   0  0  0  0  0  0  0  0  0  0  0  0
    2.7372   29.8972    1.6338 H   0  0  0  0  0  0  0  0  0  0  0  0
    0.1678   23.5824    6.6488 H   0  0  0  0  0  0  0  0  0  0  0  0
   -1.4150   23.8205    7.3493 H   0  0  0  0  0  0  0  0  0  0  0  0
   -1.1846   22.6226    6.0984 H   0  0  0  0  0  0  0  0  0  0  0  0
  2  3  1  0
  3  4  1  0
  4  5  1  0
  5  6  1  0
  6  7  1  0
  3  8  2  0
  7  8  1  0
  5  9  1  0
 10 11  2  0
 11 12  1  0
 12 14  2  0
 14 16  1  0
 10 18  1  0
 16 18  2  0
  1 19  1  0
  8 19  1  0
  1 20  1  0
  1 21  1  0
  2 21  2  0
  2 22  1  0
  9 23  1  0
 10 23  1  0
 12 24  1  0
 13 24  1  0
 14 25  1  0
 15 25  1  0
 16 26  1  0
 17 26  1  0
 23 27  1  0
  1 28  1  1
  4 29  1  0
  4 30  1  0
  5 31  1  1
  6 32  1  0
  6 33  1  0
  7 34  1  0
  7 35  1  0
  9 36  1  0
  9 37  1  0
 11 38  1  0
 13 39  1  0
 13 40  1  0
 13 41  1  0
 15 42  1  0
 15 43  1  0
 15 44  1  0
 17 45  1  0
 17 46  1  0
 17 47  1  0
 18 48  1  0
 19 49  1  0
 20 50  1  0
 20 51  1  0
 22 52  1  0
 22 53  1  0
 27 54  1  0
 27 55  1  0
 27 56  1  0
M  END
