1OPK_P16_A_2
     RDKit          3D

 45 48  0  0  0  0  0  0  0  0999 V2000
   -3.6045   -0.7072    5.1572 O   0  0  0  0  0  0  0  0  0  0  0  0
   -3.1280    0.3610    4.3885 C   0  0  0  0  0  0  0  0  0  0  0  0
   -1.6518    0.5155    4.6142 C   0  0  0  0  0  0  0  0  0  0  0  0
   -1.1758    1.3446    5.6412 C   0  0  0  0  0  0  0  0  0  0  0  0
    0.1964    1.4498    5.8804 C   0  0  0  0  0  0  0  0  0  0  0  0
    1.1027    0.7302    5.0978 C   0  0  0  0  0  0  0  0  0  0  0  0
    0.6456   -0.0966    4.0614 C   0  0  0  0  0  0  0  0  0  0  0  0
    1.5969   -0.8414    3.2816 N   0  0  0  0  0  0  0  0  0  0  0  0
    1.4516   -1.1090    1.8794 C   0  0  0  0  0  0  0  0  0  0  0  0
    2.3079   -1.9696    1.2680 N   0  0  0  0  0  0  0  0  0  0  0  0
    2.2167   -2.2261   -0.0621 C   0  0  0  0  0  0  0  0  0  0  0  0
    1.2320   -1.5934   -0.8274 C   0  0  0  0  0  0  0  0  0  0  0  0
    1.1116   -1.8207   -2.1968 C   0  0  0  0  0  0  0  0  0  0  0  0
    0.1283   -1.1499   -2.9265 C   0  0  0  0  0  0  0  0  0  0  0  0
   -0.7353   -0.2564   -2.2641 C   0  0  0  0  0  0  0  0  0  0  0  0
   -1.6020    0.3717   -2.9349 O   0  0  0  0  0  0  0  0  0  0  0  0
   -0.6330   -0.0627   -0.9060 N   0  0  0  0  0  0  0  0  0  0  0  0
    0.3517   -0.6994   -0.1896 C   0  0  0  0  0  0  0  0  0  0  0  0
    0.4958   -0.4769    1.1461 N   0  0  0  0  0  0  0  0  0  0  0  0
   -1.5335    0.8832   -0.2229 C   0  0  0  0  0  0  0  0  0  0  0  0
    0.0164   -1.3838   -4.3837 C   0  0  0  0  0  0  0  0  0  0  0  0
   -1.0399   -2.1635   -4.9014 C   0  0  0  0  0  0  0  0  0  0  0  0
   -2.2409   -2.9031   -3.8468 Cl  0  0  0  0  0  0  0  0  0  0  0  0
   -1.1375   -2.3807   -6.2802 C   0  0  0  0  0  0  0  0  0  0  0  0
   -0.1935   -1.8305   -7.1485 C   0  0  0  0  0  0  0  0  0  0  0  0
    0.8555   -1.0600   -6.6449 C   0  0  0  0  0  0  0  0  0  0  0  0
    0.9678   -0.8332   -5.2687 C   0  0  0  0  0  0  0  0  0  0  0  0
    2.2969    0.1649   -4.6868 Cl  0  0  0  0  0  0  0  0  0  0  0  0
   -0.7390   -0.2227    3.8440 C   0  0  0  0  0  0  0  0  0  0  0  0
   -4.5772   -0.7687    4.9698 H   0  0  0  0  0  0  0  0  0  0  0  0
   -3.3287    0.1704    3.3100 H   0  0  0  0  0  0  0  0  0  0  0  0
   -3.6581    1.2977    4.6732 H   0  0  0  0  0  0  0  0  0  0  0  0
   -1.8666    1.9030    6.2607 H   0  0  0  0  0  0  0  0  0  0  0  0
    0.5583    2.0885    6.6757 H   0  0  0  0  0  0  0  0  0  0  0  0
    2.1638    0.8223    5.2929 H   0  0  0  0  0  0  0  0  0  0  0  0
    2.4941   -1.1247    3.7370 H   0  0  0  0  0  0  0  0  0  0  0  0
    2.9141   -2.9176   -0.5182 H   0  0  0  0  0  0  0  0  0  0  0  0
    1.7830   -2.5089   -2.6985 H   0  0  0  0  0  0  0  0  0  0  0  0
   -1.0304    1.8676   -0.1194 H   0  0  0  0  0  0  0  0  0  0  0  0
   -1.8128    0.5072    0.7848 H   0  0  0  0  0  0  0  0  0  0  0  0
   -2.4863    1.0198   -0.7768 H   0  0  0  0  0  0  0  0  0  0  0  0
   -1.9450   -2.9805   -6.6806 H   0  0  0  0  0  0  0  0  0  0  0  0
   -0.2746   -2.0023   -8.2141 H   0  0  0  0  0  0  0  0  0  0  0  0
    1.5813   -0.6359   -7.3271 H   0  0  0  0  0  0  0  0  0  0  0  0
   -1.1117   -0.9085    3.0940 H   0  0  0  0  0  0  0  0  0  0  0  0
  1  2  1  0
  2  3  1  0
  3  4  2  0
  4  5  1  0
  5  6  2  0
  6  7  1  0
  7  8  1  0
  8  9  1  0
  9 10  2  0
 10 11  1  0
 11 12  2  0
 12 13  1  0
 13 14  2  0
 14 15  1  0
 15 16  2  0
 15 17  1  0
 12 18  1  0
 17 18  1  0
  9 19  1  0
 18 19  2  0
 17 20  1  0
 14 21  1  0
 21 22  2  0
 22 23  1  0
 22 24  1  0
 24 25  2  0
 25 26  1  0
 21 27  1  0
 26 27  2  0
 27 28  1  0
  3 29  1  0
  7 29  2  0
  1 30  1  0
  2 31  1  0
  2 32  1  0
  4 33  1  0
  5 34  1  0
  6 35  1  0
  8 36  1  0
 11 37  1  0
 13 38  1  0
 20 39  1  0
 20 40  1  0
 20 41  1  0
 24 42  1  0
 25 43  1  0
 26 44  1  0
 29 45  1  0
M  END
