8DHG_T78_A_403
     RDKit          3D

 54 56  0  0  0  0  0  0  0  0999 V2000
   -6.0491    2.4112    3.0737 C   0  0  0  0  0  0  0  0  0  0  0  0
   -5.3376    1.1213    3.4630 C   0  0  0  0  0  0  0  0  0  0  0  0
   -3.6129    0.6345    1.6878 C   0  0  0  0  0  0  0  0  0  0  0  0
   -2.8325    1.5731    3.4138 C   0  0  0  0  0  0  0  0  0  0  0  0
   -1.4916    0.4073    0.3645 C   0  0  0  0  0  0  0  0  0  0  0  0
    1.8941   -0.8920   -0.1283 O   0  0  0  0  0  0  0  0  0  0  0  0
    2.4127   -1.0523    1.1919 C   0  0  1  0  0  0  0  0  0  0  0  0
    1.8331   -2.3198    1.8314 C   0  0  0  0  0  0  0  0  0  0  0  0
    3.9423   -1.1185    1.1153 C   0  0  0  0  0  0  0  0  0  0  0  0
   -1.1300    0.1154   -2.0072 C   0  0  0  0  0  0  0  0  0  0  0  0
   -1.9533    0.5229   -0.9567 C   0  0  0  0  0  0  0  0  0  0  0  0
    3.0052   -3.4669   -4.3204 C   0  0  0  0  0  0  0  0  0  0  0  0
    1.9618   -4.5201   -4.0662 C   0  0  0  0  0  0  0  0  0  0  0  0
    4.0492   -3.7242   -5.2204 C   0  0  0  0  0  0  0  0  0  0  0  0
    5.0195   -2.7495   -5.4492 C   0  0  0  0  0  0  0  0  0  0  0  0
    3.9715   -1.2778   -3.9067 C   0  0  0  0  0  0  0  0  0  0  0  0
   -3.9886    1.0948    2.8949 N   0  0  0  0  0  0  0  0  0  0  0  0
   -4.3913    0.0611    0.8787 O   0  0  0  0  0  0  0  0  0  0  0  0
   -2.2928    0.8156    1.4835 N   0  0  0  0  0  0  0  0  0  0  0  0
   -1.7927    1.3819    2.5719 N   0  0  0  0  0  0  0  0  0  0  0  0
   -2.6768    2.1608    4.7843 C   0  0  0  0  0  0  0  0  0  0  0  0
   -2.3649    1.1536    5.7065 O   0  0  0  0  0  0  0  0  0  0  0  0
   -0.2325   -0.0545    0.5894 N   0  0  0  0  0  0  0  0  0  0  0  0
    0.5940   -0.4568   -0.4157 C   0  0  0  0  0  0  0  0  0  0  0  0
    4.3401   -2.1933    0.3388 F   0  0  0  0  0  0  0  0  0  0  0  0
    4.4814   -1.2481    2.3832 F   0  0  0  0  0  0  0  0  0  0  0  0
    4.4258    0.0458    0.5458 F   0  0  0  0  0  0  0  0  0  0  0  0
    0.1477   -0.4025   -1.7496 C   0  0  0  0  0  0  0  0  0  0  0  0
   -3.1597    1.0754   -1.2369 F   0  0  0  0  0  0  0  0  0  0  0  0
    1.0056   -0.8446   -2.8720 C   0  0  0  0  0  0  0  0  0  0  0  0
    0.9143   -0.2672   -3.9900 O   0  0  0  0  0  0  0  0  0  0  0  0
    1.9123   -1.9457   -2.7113 N   0  0  0  0  0  0  0  0  0  0  0  0
    2.9567   -2.2231   -3.6564 C   0  0  0  0  0  0  0  0  0  0  0  0
    4.9640   -1.5644   -4.7896 N   0  0  0  0  0  0  0  0  0  0  0  0
    4.0363    0.2524   -3.0450 Cl  0  0  0  0  0  0  0  0  0  0  0  0
   -6.1310    2.4824    1.9684 H   0  0  0  0  0  0  0  0  0  0  0  0
   -5.4867    3.2896    3.4546 H   0  0  0  0  0  0  0  0  0  0  0  0
   -7.0697    2.4214    3.5107 H   0  0  0  0  0  0  0  0  0  0  0  0
   -5.9213    0.2526    3.0889 H   0  0  0  0  0  0  0  0  0  0  0  0
   -5.2912    1.0395    4.5692 H   0  0  0  0  0  0  0  0  0  0  0  0
    2.1368   -0.1711    1.8131 H   0  0  0  0  0  0  0  0  0  0  0  0
    2.2448   -2.4632    2.8528 H   0  0  0  0  0  0  0  0  0  0  0  0
    2.0720   -3.2114    1.2133 H   0  0  0  0  0  0  0  0  0  0  0  0
    0.7297   -2.2360    1.9157 H   0  0  0  0  0  0  0  0  0  0  0  0
   -1.4932    0.2005   -3.0242 H   0  0  0  0  0  0  0  0  0  0  0  0
    2.1028   -4.9451   -3.0505 H   0  0  0  0  0  0  0  0  0  0  0  0
    0.9465   -4.0761   -4.1400 H   0  0  0  0  0  0  0  0  0  0  0  0
    2.0277   -5.3453   -4.8069 H   0  0  0  0  0  0  0  0  0  0  0  0
    4.1126   -4.6705   -5.7431 H   0  0  0  0  0  0  0  0  0  0  0  0
    5.8261   -2.9401   -6.1446 H   0  0  0  0  0  0  0  0  0  0  0  0
   -1.8467    2.8977    4.7690 H   0  0  0  0  0  0  0  0  0  0  0  0
   -3.5970    2.7057    5.0903 H   0  0  0  0  0  0  0  0  0  0  0  0
   -3.2119    0.6747    5.9032 H   0  0  0  0  0  0  0  0  0  0  0  0
    1.7069   -2.6581   -1.9751 H   0  0  0  0  0  0  0  0  0  0  0  0
  1  2  1  0
  6  7  1  0
  7  8  1  0
  7  9  1  0
 10 11  2  0
  5 11  1  0
 12 13  1  0
 12 14  2  0
 14 15  1  0
  3 17  1  0
  2 17  1  0
  4 17  1  0
  3 18  2  0
  3 19  1  0
  5 19  1  0
 19 20  1  0
  4 20  2  0
  4 21  1  0
 21 22  1  0
  5 23  2  0
 23 24  1  0
  6 24  1  0
  9 25  1  0
  9 26  1  0
  9 27  1  0
 10 28  1  0
 24 28  2  0
 11 29  1  0
 28 30  1  0
 30 31  2  0
 30 32  1  0
 12 33  1  0
 32 33  1  0
 16 33  2  0
 15 34  2  0
 16 34  1  0
 16 35  1  0
  1 36  1  0
  1 37  1  0
  1 38  1  0
  2 39  1  0
  2 40  1  0
  7 41  1  1
  8 42  1  0
  8 43  1  0
  8 44  1  0
 10 45  1  0
 13 46  1  0
 13 47  1  0
 13 48  1  0
 14 49  1  0
 15 50  1  0
 21 51  1  0
 21 52  1  0
 22 53  1  0
 32 54  1  0
M  END
