
     RDKit          3D

 23 25  0  0  0  0  0  0  0  0999 V2000
  -46.5343  -26.3305   -0.3998 C   0  0  0  0  0  0  0  0  0  0  0  0
  -45.5114  -27.8804    1.1017 C   0  0  0  0  0  0  0  0  0  0  0  0
  -46.6034  -27.0974    0.7655 C   0  0  0  0  0  0  0  0  0  0  0  0
  -44.3620  -27.8945    0.3019 C   0  0  0  0  0  0  0  0  0  0  0  0
  -43.3161  -28.7883    0.9011 C   0  0  0  0  0  0  0  0  0  0  0  0
  -44.7088  -30.9297    1.1426 C   0  0  0  0  0  0  0  0  0  0  0  0
  -44.1741  -29.6828    1.8250 C   0  0  2  0  0  0  0  0  0  0  0  0
  -44.2785  -27.1277   -0.8472 C   0  0  0  0  0  0  0  0  0  0  0  0
  -45.3799  -26.3449   -1.1992 C   0  0  0  0  0  0  0  0  0  0  0  0
  -51.0638  -29.1362    4.7388 C   0  0  0  0  0  0  0  0  0  0  0  0
  -50.1547  -28.9281    5.7785 C   0  0  0  0  0  0  0  0  0  0  0  0
  -48.7789  -28.9832    5.5441 C   0  0  0  0  0  0  0  0  0  0  0  0
  -48.2839  -29.2034    4.2520 C   0  0  0  0  0  0  0  0  0  0  0  0
  -46.8178  -29.2446    4.0248 C   0  0  0  0  0  0  0  0  0  0  0  0
  -45.3054  -28.7470    2.3166 C   0  0  2  0  0  0  0  0  0  0  0  0
  -49.1944  -29.3596    3.1986 C   0  0  0  0  0  0  0  0  0  0  0  0
  -50.5718  -29.3033    3.4425 C   0  0  0  0  0  0  0  0  0  0  0  0
  -52.4353  -28.9596    4.9537 N   0  0  0  0  0  0  0  0  0  0  0  0
  -47.9760  -28.7987    6.6409 O   0  0  0  0  0  0  0  0  0  0  0  0
  -46.5185  -29.3758    2.7106 O   0  0  0  0  0  0  0  0  0  0  0  0
  -45.7807  -31.4868    1.7356 O   0  0  0  0  0  0  0  0  0  0  0  0
  -44.3051  -31.4088    0.0932 O   0  0  0  0  0  0  0  0  0  0  0  0
  -46.0077  -29.1526    4.9383 O   0  0  0  0  0  0  0  0  0  0  0  0
  1  3  4  0
  2  3  4  0
  2  4  4  0
  4  5  1  0
  5  7  1  0
  7  6  1  6
  4  8  4  0
  1  9  4  0
  8  9  4  0
 10 11  4  0
 11 12  4  0
 12 13  4  0
 13 14  1  0
  2 15  1  0
  7 15  1  0
 13 16  4  0
 16 17  4  0
 10 17  4  0
 10 18  1  0
 12 19  1  0
 15 20  1  6
 14 20  1  0
  6 21  1  0
  6 22  2  0
 14 23  2  0
M  END
