7VYJ_CA0_A_702
     RDKit          3D

 26 28  0  0  0  0  0  0  0  0999 V2000
   54.0650  -41.1720   27.8690 N   0  0  0  0  0  0  0  0  0  0  0  0
   53.6140  -42.4110   28.0570 C   0  0  0  0  0  0  0  0  0  0  0  0
   54.1350  -43.4590   27.4030 N   0  0  0  0  0  0  0  0  0  0  0  0
   55.1550  -43.2890   26.5440 C   0  0  0  0  0  0  0  0  0  0  0  0
   55.6720  -42.0150   26.3360 C   0  0  0  0  0  0  0  0  0  0  0  0
   55.0840  -40.9370   27.0360 C   0  0  0  0  0  0  0  0  0  0  0  0
   55.5840  -39.5820   26.8420 N   0  0  0  0  0  0  0  0  0  0  0  0
   56.6810  -42.1310   25.4480 N   0  0  0  0  0  0  0  0  0  0  0  0
   56.7750  -43.4210   25.1110 C   0  0  0  0  0  0  0  0  0  0  0  0
   55.8670  -44.1430   25.7760 N   0  0  0  0  0  0  0  0  0  0  0  0
   60.1360  -48.8690   25.1420 P   0  0  1  0  0  0  0  0  0  0  0  0
   58.8890  -51.2770   24.8290 C   0  0  0  0  0  0  0  0  0  0  0  0
   55.6620  -45.5610   25.6800 C   0  0  1  0  0  0  0  0  0  0  0  0
   60.8290  -49.0810   26.4670 O   0  0  0  0  0  0  0  0  0  0  0  0
   57.6760  -51.2170   24.8560 O   0  0  0  0  0  0  0  0  0  0  0  0
   55.2570  -45.9650   24.1090 C   0  0  2  0  0  0  0  0  0  0  0  0
   53.8870  -45.5290   23.8450 O   0  0  0  0  0  0  0  0  0  0  0  0
   61.0530  -48.0780   24.2590 O   0  0  0  0  0  0  0  0  0  0  0  0
   59.6480  -52.4540   25.2360 N   0  0  0  0  0  0  0  0  0  0  0  0
   55.4260  -47.2360   24.0410 C   0  0  2  0  0  0  0  0  0  0  0  0
   54.2180  -47.9800   24.5120 O   0  0  0  0  0  0  0  0  0  0  0  0
   59.6870  -50.2450   24.3230 O   0  0  0  0  0  0  0  0  0  0  0  0
   56.5860  -47.5330   25.0680 C   0  0  2  0  0  0  0  0  0  0  0  0
   56.7500  -46.2120   25.8630 O   0  0  0  0  0  0  0  0  0  0  0  0
   57.7860  -47.8700   24.4460 C   0  0  0  0  0  0  0  0  0  0  0  0
   58.7500  -48.0200   25.4570 O   0  0  0  0  0  0  0  0  0  0  0  0
  1  2  2  0
  2  3  1  0
  3  4  2  0
  4  5  1  0
  1  6  1  0
  5  6  2  0
  6  7  1  0
  5  8  1  0
  8  9  2  0
  4 10  1  0
  9 10  1  0
 13 10  1  6
 11 14  1  1
 12 15  2  0
 13 16  1  0
 16 17  1  1
 11 18  2  0
 12 19  1  0
 16 20  1  0
 20 21  1  1
 11 22  1  0
 12 22  1  0
 20 23  1  0
 13 24  1  0
 23 24  1  0
 23 25  1  6
 11 26  1  0
 25 26  1  0
M  END
$$$$
7VYJ_CA0_B_702
     RDKit          3D

 26 28  0  0  0  0  0  0  0  0999 V2000
   37.5870  -75.6960    8.7140 N   0  0  0  0  0  0  0  0  0  0  0  0
   37.5750  -74.9210    9.7930 C   0  0  0  0  0  0  0  0  0  0  0  0
   37.3010  -73.6250    9.7350 N   0  0  0  0  0  0  0  0  0  0  0  0
   37.0140  -73.0650    8.5550 C   0  0  0  0  0  0  0  0  0  0  0  0
   36.9970  -73.8300    7.3990 C   0  0  0  0  0  0  0  0  0  0  0  0
   37.3000  -75.2050    7.5190 C   0  0  0  0  0  0  0  0  0  0  0  0
   37.3090  -76.1030    6.3610 N   0  0  0  0  0  0  0  0  0  0  0  0
   36.6730  -72.9990    6.3820 N   0  0  0  0  0  0  0  0  0  0  0  0
   36.5030  -71.7760    6.8860 C   0  0  0  0  0  0  0  0  0  0  0  0
   36.7100  -71.8020    8.2020 N   0  0  0  0  0  0  0  0  0  0  0  0
   32.8380  -66.7170    8.1670 P   0  0  1  0  0  0  0  0  0  0  0  0
   33.4790  -64.8260   10.0490 C   0  0  0  0  0  0  0  0  0  0  0  0
   36.6210  -70.6970    9.1070 C   0  0  1  0  0  0  0  0  0  0  0  0
   31.4640  -67.0770    8.6890 O   0  0  0  0  0  0  0  0  0  0  0  0
   34.3970  -65.1990   10.7430 O   0  0  0  0  0  0  0  0  0  0  0  0
   37.7670  -69.5380    8.6950 C   0  0  2  0  0  0  0  0  0  0  0  0
   39.0980  -69.9750    9.1060 O   0  0  0  0  0  0  0  0  0  0  0  0
   32.7800  -66.6430    6.6610 O   0  0  0  0  0  0  0  0  0  0  0  0
   32.4880  -63.8490   10.5250 N   0  0  0  0  0  0  0  0  0  0  0  0
   37.3960  -68.4590    9.2830 C   0  0  2  0  0  0  0  0  0  0  0  0
   37.9500  -68.3340   10.6800 O   0  0  0  0  0  0  0  0  0  0  0  0
   33.3750  -65.2470    8.7140 O   0  0  0  0  0  0  0  0  0  0  0  0
   35.8310  -68.5990    9.3890 C   0  0  2  0  0  0  0  0  0  0  0  0
   35.4940  -70.0770    9.0020 O   0  0  0  0  0  0  0  0  0  0  0  0
   35.2330  -67.6970    8.5300 C   0  0  0  0  0  0  0  0  0  0  0  0
   33.8560  -67.9170    8.6320 O   0  0  0  0  0  0  0  0  0  0  0  0
  1  2  2  0
  2  3  1  0
  3  4  2  0
  4  5  1  0
  1  6  1  0
  5  6  2  0
  6  7  1  0
  5  8  1  0
  8  9  2  0
  4 10  1  0
  9 10  1  0
 13 10  1  6
 11 14  1  1
 12 15  2  0
 13 16  1  0
 16 17  1  1
 11 18  2  0
 12 19  1  0
 16 20  1  0
 20 21  1  1
 11 22  1  0
 12 22  1  0
 20 23  1  0
 13 24  1  0
 23 24  1  0
 23 25  1  6
 11 26  1  0
 25 26  1  0
M  END
$$$$
