7CTM_BDP_A_501
     RDKit          3D

 13 13  0  0  0  0  0  0  0  0999 V2000
    1.9599   -4.4313  105.3913 C   0  0  1  0  0  0  0  0  0  0  0  0
    2.2499   -3.8980  106.7853 C   0  0  1  0  0  0  0  0  0  0  0  0
    1.4748   -4.6133  107.8259 C   0  0  2  0  0  0  0  0  0  0  0  0
    0.0089   -4.6503  107.5193 C   0  0  1  0  0  0  0  0  0  0  0  0
   -0.2461   -5.1654  106.1059 C   0  0  1  0  0  0  0  0  0  0  0  0
   -1.6930   -5.0046  105.7913 C   0  0  0  0  0  0  0  0  0  0  0  0
    3.6496   -4.0762  107.0577 O   0  0  0  0  0  0  0  0  0  0  0  0
    1.6490   -3.9406  109.0926 O   0  0  0  0  0  0  0  0  0  0  0  0
   -0.6437   -5.4995  108.4674 O   0  0  0  0  0  0  0  0  0  0  0  0
    0.4919   -4.3967  105.0969 O   0  0  0  0  0  0  0  0  0  0  0  0
   -2.5325   -5.8320  106.2366 O   0  0  0  0  0  0  0  0  0  0  0  0
    2.6080   -3.6761  104.4694 O   0  0  0  0  0  0  0  0  0  0  0  0
   -2.0492   -4.0265  105.0848 O   0  0  0  0  0  0  0  0  0  0  0  0
  1  2  1  0
  2  3  1  0
  3  4  1  0
  4  5  1  0
  5  6  1  6
  2  7  1  1
  3  8  1  1
  4  9  1  1
  1 10  1  0
  5 10  1  0
  6 11  2  0
  1 12  1  6
  6 13  1  0
M  END
