1JJE_BYS_A_250
     RDKit          3D

 25 27  0  0  0  0  0  0  0  0999 V2000
   39.9641   25.9661   40.3719 C   0  0  1  0  0  0  0  0  0  0  0  0
   40.1663   24.5926   40.8850 C   0  0  0  0  0  0  0  0  0  0  0  0
   39.3529   23.9853   41.6252 O   0  0  0  0  0  0  0  0  0  0  0  0
   41.3372   23.9433   40.5163 O   0  0  0  0  0  0  0  0  0  0  0  0
   38.8967   25.9125   39.3110 C   0  0  0  0  0  0  0  0  0  0  0  0
   39.2482   25.1377   38.1222 C   0  0  0  0  0  0  0  0  0  0  0  0
   40.2735   25.4591   37.2474 C   0  0  0  0  0  0  0  0  0  0  0  0
   40.5704   24.6966   36.1346 C   0  0  0  0  0  0  0  0  0  0  0  0
   39.8320   23.5634   35.8589 C   0  0  0  0  0  0  0  0  0  0  0  0
   38.8023   23.2134   36.7102 C   0  0  0  0  0  0  0  0  0  0  0  0
   38.5192   23.9895   37.8204 C   0  0  0  0  0  0  0  0  0  0  0  0
   39.7561   27.0102   41.4132 C   0  0  1  0  0  0  0  0  0  0  0  0
   40.4243   26.7384   42.7073 C   0  0  0  0  0  0  0  0  0  0  0  0
   41.6553   26.5094   42.8260 O   0  0  0  0  0  0  0  0  0  0  0  0
   39.6270   26.7414   43.8439 O   0  0  0  0  0  0  0  0  0  0  0  0
   39.8960   28.4136   40.9588 C   0  0  0  0  0  0  0  0  0  0  0  0
   39.4848   29.4661   41.8845 C   0  0  0  0  0  0  0  0  0  0  0  0
   38.1197   29.7245   42.0756 C   0  0  0  0  0  0  0  0  0  0  0  0
   37.7150   30.7154   42.9524 C   0  0  0  0  0  0  0  0  0  0  0  0
   36.4487   31.1797   43.3312 O   0  0  0  0  0  0  0  0  0  0  0  0
   36.6592   32.5032   43.8446 C   0  0  0  0  0  0  0  0  0  0  0  0
   37.9523   32.3429   44.4193 O   0  0  0  0  0  0  0  0  0  0  0  0
   38.6885   31.4433   43.6343 C   0  0  0  0  0  0  0  0  0  0  0  0
   40.0339   31.1984   43.4547 C   0  0  0  0  0  0  0  0  0  0  0  0
   40.4454   30.2105   42.5809 C   0  0  0  0  0  0  0  0  0  0  0  0
  1  2  1  0
  2  3  2  0
  2  4  1  0
  1  5  1  6
  5  6  1  0
  6  7  2  0
  7  8  1  0
  8  9  2  0
  9 10  1  0
  6 11  1  0
 10 11  2  0
  1 12  1  0
 12 13  1  0
 13 14  2  0
 13 15  1  0
 12 16  1  6
 16 17  1  0
 17 18  2  0
 18 19  1  0
 19 20  1  0
 20 21  1  0
 21 22  1  0
 19 23  2  0
 22 23  1  0
 23 24  1  0
 17 25  1  0
 24 25  2  0
M  END
$$$$
