1JJE_BYS_A_250
     RDKit          3D

 25 27  0  0  0  0  0  0  0  0999 V2000
   -2.0097   -2.2775   13.3573 C   0  0  1  0  0  0  0  0  0  0  0  0
   -2.9183   -1.4062   14.1359 C   0  0  0  0  0  0  0  0  0  0  0  0
   -3.4527   -1.7324   15.2250 O   0  0  0  0  0  0  0  0  0  0  0  0
   -3.1897   -0.1471   13.6166 O   0  0  0  0  0  0  0  0  0  0  0  0
   -0.7277   -2.4226   14.1337 C   0  0  0  0  0  0  0  0  0  0  0  0
   -0.1742   -1.1711   14.6481 C   0  0  0  0  0  0  0  0  0  0  0  0
    0.7161   -1.0798   15.7059 C   0  0  0  0  0  0  0  0  0  0  0  0
    1.2140    0.1263   16.1590 C   0  0  0  0  0  0  0  0  0  0  0  0
    0.8258    1.3038   15.5519 C   0  0  0  0  0  0  0  0  0  0  0  0
   -0.0607    1.2494   14.4943 C   0  0  0  0  0  0  0  0  0  0  0  0
   -0.5492    0.0318   14.0539 C   0  0  0  0  0  0  0  0  0  0  0  0
   -2.6041   -3.5606   12.8899 C   0  0  1  0  0  0  0  0  0  0  0  0
   -4.0122   -3.4649   12.4391 C   0  0  0  0  0  0  0  0  0  0  0  0
   -4.3988   -2.7225   11.5004 O   0  0  0  0  0  0  0  0  0  0  0  0
   -4.9443   -4.2492   13.1053 O   0  0  0  0  0  0  0  0  0  0  0  0
   -1.7520   -4.3807   11.9973 C   0  0  0  0  0  0  0  0  0  0  0  0
   -2.3396   -5.5918   11.4302 C   0  0  0  0  0  0  0  0  0  0  0  0
   -2.5428   -6.7114   12.2500 C   0  0  0  0  0  0  0  0  0  0  0  0
   -3.1024   -7.8641   11.7279 C   0  0  0  0  0  0  0  0  0  0  0  0
   -3.4135   -9.1042   12.3004 O   0  0  0  0  0  0  0  0  0  0  0  0
   -3.4810  -10.0300   11.2060 C   0  0  0  0  0  0  0  0  0  0  0  0
   -3.9802   -9.1709   10.1858 O   0  0  0  0  0  0  0  0  0  0  0  0
   -3.4555   -7.8847   10.3798 C   0  0  0  0  0  0  0  0  0  0  0  0
   -3.2606   -6.7900    9.5635 C   0  0  0  0  0  0  0  0  0  0  0  0
   -2.7024   -5.6356   10.0780 C   0  0  0  0  0  0  0  0  0  0  0  0
  1  2  1  0
  2  3  2  0
  2  4  1  0
  1  5  1  1
  5  6  1  0
  6  7  2  0
  7  8  1  0
  8  9  2  0
  9 10  1  0
  6 11  1  0
 10 11  2  0
  1 12  1  0
 12 13  1  0
 13 14  2  0
 13 15  1  0
 12 16  1  6
 16 17  1  0
 17 18  2  0
 18 19  1  0
 19 20  1  0
 20 21  1  0
 21 22  1  0
 19 23  2  0
 22 23  1  0
 23 24  1  0
 17 25  1  0
 24 25  2  0
M  END
$$$$
