1JJE_BYS_A_250
     RDKit          3D

 25 27  0  0  0  0  0  0  0  0999 V2000
   30.0381   22.3415   31.0124 C   0  0  1  0  0  0  0  0  0  0  0  0
   29.5234   23.5679   30.3630 C   0  0  0  0  0  0  0  0  0  0  0  0
   29.0599   24.5573   30.9830 O   0  0  0  0  0  0  0  0  0  0  0  0
   29.5611   23.6149   28.9756 O   0  0  0  0  0  0  0  0  0  0  0  0
   28.9616   21.2911   30.9394 C   0  0  0  0  0  0  0  0  0  0  0  0
   27.7072   21.6478   31.6002 C   0  0  0  0  0  0  0  0  0  0  0  0
   27.4859   21.5679   32.9656 C   0  0  0  0  0  0  0  0  0  0  0  0
   26.2824   21.9161   33.5473 C   0  0  0  0  0  0  0  0  0  0  0  0
   25.2410   22.3648   32.7601 C   0  0  0  0  0  0  0  0  0  0  0  0
   25.4271   22.4568   31.3947 C   0  0  0  0  0  0  0  0  0  0  0  0
   26.6399   22.1035   30.8295 C   0  0  0  0  0  0  0  0  0  0  0  0
   31.3803   21.8917   30.5496 C   0  0  1  0  0  0  0  0  0  0  0  0
   32.0968   21.0024   31.4934 C   0  0  0  0  0  0  0  0  0  0  0  0
   31.9336   19.7563   31.5435 O   0  0  0  0  0  0  0  0  0  0  0  0
   32.9971   21.5995   32.3655 O   0  0  0  0  0  0  0  0  0  0  0  0
   31.4619   21.4455   29.1391 C   0  0  0  0  0  0  0  0  0  0  0  0
   32.7594   20.9841   28.6520 C   0  0  0  0  0  0  0  0  0  0  0  0
   33.7681   21.9193   28.3785 C   0  0  0  0  0  0  0  0  0  0  0  0
   35.0035   21.4968   27.9207 C   0  0  0  0  0  0  0  0  0  0  0  0
   36.1691   22.1924   27.5745 O   0  0  0  0  0  0  0  0  0  0  0  0
   36.9059   21.3101   26.7154 C   0  0  0  0  0  0  0  0  0  0  0  0
   36.5410   20.0542   27.2792 O   0  0  0  0  0  0  0  0  0  0  0  0
   35.2185   20.1317   27.7399 C   0  0  0  0  0  0  0  0  0  0  0  0
   34.2344   19.2023   28.0054 C   0  0  0  0  0  0  0  0  0  0  0  0
   32.9984   19.6169   28.4628 C   0  0  0  0  0  0  0  0  0  0  0  0
  1  2  1  0
  2  3  2  0
  2  4  1  0
  1  5  1  6
  5  6  1  0
  6  7  2  0
  7  8  1  0
  8  9  2  0
  9 10  1  0
  6 11  1  0
 10 11  2  0
  1 12  1  0
 12 13  1  0
 13 14  2  0
 13 15  1  0
 12 16  1  6
 16 17  1  0
 17 18  2  0
 18 19  1  0
 19 20  1  0
 20 21  1  0
 21 22  1  0
 19 23  2  0
 22 23  1  0
 23 24  1  0
 17 25  1  0
 24 25  2  0
M  END
$$$$
