7OP9_06K_I_301
     RDKit          3D

 11 12  0  0  0  0  0  0  0  0999 V2000
  -85.0710  -27.5230  -33.1440 C   0  0  0  0  0  0  0  0  0  0  0  0
  -83.5500  -28.8510  -34.2470 C   0  0  0  0  0  0  0  0  0  0  0  0
  -83.9380  -28.2780  -35.4260 C   0  0  0  0  0  0  0  0  0  0  0  0
  -84.9440  -27.2890  -35.3840 C   0  0  0  0  0  0  0  0  0  0  0  0
  -82.4180  -29.7500  -35.8570 C   0  0  0  0  0  0  0  0  0  0  0  0
  -85.4700  -26.9400  -34.2420 N   0  0  0  0  0  0  0  0  0  0  0  0
  -84.1400  -28.4500  -33.1000 N   0  0  0  0  0  0  0  0  0  0  0  0
  -83.2150  -28.8610  -36.4210 N   0  0  0  0  0  0  0  0  0  0  0  0
  -82.5950  -29.7620  -34.5440 N   0  0  0  0  0  0  0  0  0  0  0  0
  -85.8530  -27.0090  -31.6650 Cl  0  0  0  0  0  0  0  0  0  0  0  0
  -85.4850  -26.4820  -36.8430 Cl  0  0  0  0  0  0  0  0  0  0  0  0
  2  3  1  0
  3  4  2  0
  1  6  2  0
  4  6  1  0
  1  7  1  0
  2  7  2  0
  3  8  1  0
  5  8  1  0
  2  9  1  0
  5  9  2  0
  1 10  1  0
  4 11  1  0
M  END
$$$$
7OP9_06K_F_301
     RDKit          3D

 11 12  0  0  0  0  0  0  0  0999 V2000
   10.5120  -22.2760   13.0880 C   0  0  0  0  0  0  0  0  0  0  0  0
   10.0540  -20.3290   11.9130 C   0  0  0  0  0  0  0  0  0  0  0  0
   10.0370  -21.0640   10.7610 C   0  0  0  0  0  0  0  0  0  0  0  0
   10.2590  -22.4610   10.8450 C   0  0  0  0  0  0  0  0  0  0  0  0
    9.6650  -18.9880   10.2560 C   0  0  0  0  0  0  0  0  0  0  0  0
   10.5020  -23.0200   12.0070 N   0  0  0  0  0  0  0  0  0  0  0  0
   10.3020  -20.9670   13.0840 N   0  0  0  0  0  0  0  0  0  0  0  0
    9.7900  -20.2060    9.7410 N   0  0  0  0  0  0  0  0  0  0  0  0
    9.8180  -19.0410   11.5680 N   0  0  0  0  0  0  0  0  0  0  0  0
   10.8310  -23.1100   14.6020 Cl  0  0  0  0  0  0  0  0  0  0  0  0
   10.2200  -23.4640    9.4050 Cl  0  0  0  0  0  0  0  0  0  0  0  0
  2  3  1  0
  3  4  2  0
  1  6  2  0
  4  6  1  0
  1  7  1  0
  2  7  2  0
  3  8  1  0
  5  8  1  0
  2  9  1  0
  5  9  2  0
  1 10  1  0
  4 11  1  0
M  END
$$$$
7OP9_06K_K_301
     RDKit          3D

 11 12  0  0  0  0  0  0  0  0999 V2000
  -53.7190  -17.2630  -59.2930 C   0  0  0  0  0  0  0  0  0  0  0  0
  -54.1560  -19.2110  -58.1280 C   0  0  0  0  0  0  0  0  0  0  0  0
  -54.1880  -18.4890  -56.9760 C   0  0  0  0  0  0  0  0  0  0  0  0
  -53.9680  -17.0940  -57.0470 C   0  0  0  0  0  0  0  0  0  0  0  0
  -54.5390  -20.5700  -56.4790 C   0  0  0  0  0  0  0  0  0  0  0  0
  -53.7420  -16.5250  -58.2050 N   0  0  0  0  0  0  0  0  0  0  0  0
  -53.9120  -18.5640  -59.2920 N   0  0  0  0  0  0  0  0  0  0  0  0
  -54.4310  -19.3550  -55.9620 N   0  0  0  0  0  0  0  0  0  0  0  0
  -54.3790  -20.5110  -57.7940 N   0  0  0  0  0  0  0  0  0  0  0  0
  -53.4040  -16.4610  -60.8260 Cl  0  0  0  0  0  0  0  0  0  0  0  0
  -54.0370  -16.1270  -55.5870 Cl  0  0  0  0  0  0  0  0  0  0  0  0
  2  3  1  0
  3  4  2  0
  1  6  2  0
  4  6  1  0
  1  7  1  0
  2  7  2  0
  3  8  1  0
  5  8  1  0
  2  9  1  0
  5  9  2  0
  1 10  1  0
  4 11  1  0
M  END
$$$$
7OP9_06K_D_301
     RDKit          3D

 11 12  0  0  0  0  0  0  0  0999 V2000
  -23.7050    1.8600   13.1250 C   0  0  0  0  0  0  0  0  0  0  0  0
  -21.8010    1.2640   11.9800 C   0  0  0  0  0  0  0  0  0  0  0  0
  -22.4240    1.6350   10.8210 C   0  0  0  0  0  0  0  0  0  0  0  0
  -23.7430    2.1300   10.8800 C   0  0  0  0  0  0  0  0  0  0  0  0
  -20.4430    0.9100   10.3290 C   0  0  0  0  0  0  0  0  0  0  0  0
  -24.3390    2.2260   12.0340 N   0  0  0  0  0  0  0  0  0  0  0  0
  -22.4760    1.3860   13.1440 N   0  0  0  0  0  0  0  0  0  0  0  0
  -21.5470    1.4130    9.8050 N   0  0  0  0  0  0  0  0  0  0  0  0
  -20.5650    0.8170   11.6460 N   0  0  0  0  0  0  0  0  0  0  0  0
  -24.6030    2.0290   14.6240 Cl  0  0  0  0  0  0  0  0  0  0  0  0
  -24.5580    2.6450    9.4190 Cl  0  0  0  0  0  0  0  0  0  0  0  0
  2  3  1  0
  3  4  2  0
  1  6  2  0
  4  6  1  0
  1  7  1  0
  2  7  2  0
  3  8  1  0
  5  8  1  0
  2  9  1  0
  5  9  2  0
  1 10  1  0
  4 11  1  0
M  END
$$$$
7OP9_06K_C_301
     RDKit          3D

 11 12  0  0  0  0  0  0  0  0999 V2000
   20.8310  -13.1150  -13.3390 C   0  0  0  0  0  0  0  0  0  0  0  0
   19.0000  -12.3970  -12.1250 C   0  0  0  0  0  0  0  0  0  0  0  0
   19.7680  -12.4000  -11.0020 C   0  0  0  0  0  0  0  0  0  0  0  0
   21.1120  -12.7930  -11.1190 C   0  0  0  0  0  0  0  0  0  0  0  0
   17.7740  -11.7710  -10.4490 C   0  0  0  0  0  0  0  0  0  0  0  0
   21.5990  -13.1370  -12.2790 N   0  0  0  0  0  0  0  0  0  0  0  0
   19.5600  -12.7630  -13.3010 N   0  0  0  0  0  0  0  0  0  0  0  0
   18.9830  -12.0030   -9.9640 N   0  0  0  0  0  0  0  0  0  0  0  0
   17.7620  -11.9840  -11.7530 N   0  0  0  0  0  0  0  0  0  0  0  0
   21.5430  -13.6060  -14.8710 Cl  0  0  0  0  0  0  0  0  0  0  0  0
   22.1240  -12.7770   -9.6980 Cl  0  0  0  0  0  0  0  0  0  0  0  0
  2  3  1  0
  3  4  2  0
  1  6  2  0
  4  6  1  0
  1  7  1  0
  2  7  2  0
  3  8  1  0
  5  8  1  0
  2  9  1  0
  5  9  2  0
  1 10  1  0
  4 11  1  0
M  END
$$$$
7OP9_06K_G_301
     RDKit          3D

 11 12  0  0  0  0  0  0  0  0999 V2000
  -63.2350  -63.4370  -33.0140 C   0  0  0  0  0  0  0  0  0  0  0  0
  -62.8850  -61.4760  -34.1610 C   0  0  0  0  0  0  0  0  0  0  0  0
  -63.1890  -62.1300  -35.3210 C   0  0  0  0  0  0  0  0  0  0  0  0
  -63.5340  -63.4960  -35.2520 C   0  0  0  0  0  0  0  0  0  0  0  0
  -62.7240  -60.0640  -35.7820 C   0  0  0  0  0  0  0  0  0  0  0  0
  -63.5410  -64.1070  -34.0970 N   0  0  0  0  0  0  0  0  0  0  0  0
  -62.9120  -62.1710  -33.0070 N   0  0  0  0  0  0  0  0  0  0  0  0
  -63.0790  -61.2170  -36.3230 N   0  0  0  0  0  0  0  0  0  0  0  0
  -62.5930  -60.1880  -34.4690 N   0  0  0  0  0  0  0  0  0  0  0  0
  -63.2350  -64.2740  -31.4770 Cl  0  0  0  0  0  0  0  0  0  0  0  0
  -63.9910  -64.3720  -36.7020 Cl  0  0  0  0  0  0  0  0  0  0  0  0
  2  3  1  0
  3  4  2  0
  1  6  2  0
  4  6  1  0
  1  7  1  0
  2  7  2  0
  3  8  1  0
  5  8  1  0
  2  9  1  0
  5  9  2  0
  1 10  1  0
  4 11  1  0
M  END
$$$$
7OP9_06K_J_301
     RDKit          3D

 11 12  0  0  0  0  0  0  0  0999 V2000
  -49.5920  -59.0920  -59.2130 C   0  0  0  0  0  0  0  0  0  0  0  0
  -51.1370  -57.7690  -58.1110 C   0  0  0  0  0  0  0  0  0  0  0  0
  -50.5380  -58.0870  -56.9320 C   0  0  0  0  0  0  0  0  0  0  0  0
  -49.4070  -58.9450  -56.9570 C   0  0  0  0  0  0  0  0  0  0  0  0
  -52.2160  -56.7630  -56.5250 C   0  0  0  0  0  0  0  0  0  0  0  0
  -48.9850  -59.4290  -58.1000 N   0  0  0  0  0  0  0  0  0  0  0  0
  -50.6370  -58.2960  -59.2480 N   0  0  0  0  0  0  0  0  0  0  0  0
  -51.2260  -57.4430  -55.9620 N   0  0  0  0  0  0  0  0  0  0  0  0
  -52.1830  -56.9460  -57.8350 N   0  0  0  0  0  0  0  0  0  0  0  0
  -48.9790  -59.7620  -60.7160 Cl  0  0  0  0  0  0  0  0  0  0  0  0
  -48.5590  -59.3900  -55.4810 Cl  0  0  0  0  0  0  0  0  0  0  0  0
  2  3  1  0
  3  4  2  0
  1  6  2  0
  4  6  1  0
  1  7  1  0
  2  7  2  0
  3  8  1  0
  5  8  1  0
  2  9  1  0
  5  9  2  0
  1 10  1  0
  4 11  1  0
M  END
$$$$
7OP9_06K_A_301
     RDKit          3D

 11 12  0  0  0  0  0  0  0  0999 V2000
  -20.7900  -11.9210  -13.1080 C   0  0  0  0  0  0  0  0  0  0  0  0
  -19.2750  -10.6290  -11.9390 C   0  0  0  0  0  0  0  0  0  0  0  0
  -19.6770  -11.2450  -10.7870 C   0  0  0  0  0  0  0  0  0  0  0  0
  -20.6890  -12.2300  -10.8720 C   0  0  0  0  0  0  0  0  0  0  0  0
  -18.1500   -9.8010  -10.2740 C   0  0  0  0  0  0  0  0  0  0  0  0
  -21.2060  -12.5400  -12.0300 N   0  0  0  0  0  0  0  0  0  0  0  0
  -19.8590  -10.9890  -13.1150 N   0  0  0  0  0  0  0  0  0  0  0  0
  -18.9660  -10.7120   -9.7600 N   0  0  0  0  0  0  0  0  0  0  0  0
  -18.3170   -9.7320  -11.5840 N   0  0  0  0  0  0  0  0  0  0  0  0
  -21.5580  -12.4030  -14.6040 Cl  0  0  0  0  0  0  0  0  0  0  0  0
  -21.2210  -13.0690   -9.4320 Cl  0  0  0  0  0  0  0  0  0  0  0  0
  2  3  1  0
  3  4  2  0
  1  6  2  0
  4  6  1  0
  1  7  1  0
  2  7  2  0
  3  8  1  0
  5  8  1  0
  2  9  1  0
  5  9  2  0
  1 10  1  0
  4 11  1  0
M  END
$$$$
7OP9_06K_E_301
     RDKit          3D

 11 12  0  0  0  0  0  0  0  0999 V2000
   14.6510   19.4810   12.7290 C   0  0  0  0  0  0  0  0  0  0  0  0
   13.1090   18.1470   11.6450 C   0  0  0  0  0  0  0  0  0  0  0  0
   13.6710   18.4890   10.4460 C   0  0  0  0  0  0  0  0  0  0  0  0
   14.7810   19.3750   10.4500 C   0  0  0  0  0  0  0  0  0  0  0  0
   12.0100   17.1320   10.0650 C   0  0  0  0  0  0  0  0  0  0  0  0
   15.2190   19.8350   11.5980 N   0  0  0  0  0  0  0  0  0  0  0  0
   13.6200   18.6610   12.7860 N   0  0  0  0  0  0  0  0  0  0  0  0
   12.9710   17.8390    9.4790 N   0  0  0  0  0  0  0  0  0  0  0  0
   12.0760   17.3030   11.3780 N   0  0  0  0  0  0  0  0  0  0  0  0
   15.3120   20.1520   14.2200 Cl  0  0  0  0  0  0  0  0  0  0  0  0
   15.5760   19.8470    8.9450 Cl  0  0  0  0  0  0  0  0  0  0  0  0
  2  3  1  0
  3  4  2  0
  1  6  2  0
  4  6  1  0
  1  7  1  0
  2  7  2  0
  3  8  1  0
  5  8  1  0
  2  9  1  0
  5  9  2  0
  1 10  1  0
  4 11  1  0
M  END
$$$$
7OP9_06K_L_301
     RDKit          3D

 11 12  0  0  0  0  0  0  0  0999 V2000
  -87.9040  -41.5300  -59.2770 C   0  0  0  0  0  0  0  0  0  0  0  0
  -85.9940  -40.9690  -58.0970 C   0  0  0  0  0  0  0  0  0  0  0  0
  -86.6050  -41.3630  -56.9400 C   0  0  0  0  0  0  0  0  0  0  0  0
  -87.9370  -41.8420  -57.0140 C   0  0  0  0  0  0  0  0  0  0  0  0
  -84.6150  -40.6690  -56.4490 C   0  0  0  0  0  0  0  0  0  0  0  0
  -88.5280  -41.9070  -58.1800 N   0  0  0  0  0  0  0  0  0  0  0  0
  -86.6690  -41.0670  -59.2660 N   0  0  0  0  0  0  0  0  0  0  0  0
  -85.7280  -41.1620  -55.9240 N   0  0  0  0  0  0  0  0  0  0  0  0
  -84.7450  -40.5440  -57.7630 N   0  0  0  0  0  0  0  0  0  0  0  0
  -88.7990  -41.6650  -60.7950 Cl  0  0  0  0  0  0  0  0  0  0  0  0
  -88.8000  -42.3880  -55.5790 Cl  0  0  0  0  0  0  0  0  0  0  0  0
  2  3  1  0
  3  4  2  0
  1  6  2  0
  4  6  1  0
  1  7  1  0
  2  7  2  0
  3  8  1  0
  5  8  1  0
  2  9  1  0
  5  9  2  0
  1 10  1  0
  4 11  1  0
M  END
$$$$
7OP9_06K_H_301
     RDKit          3D

 11 12  0  0  0  0  0  0  0  0999 V2000
  -43.2030  -26.7400  -33.0530 C   0  0  0  0  0  0  0  0  0  0  0  0
  -45.0780  -27.3890  -34.2360 C   0  0  0  0  0  0  0  0  0  0  0  0
  -44.3450  -27.3550  -35.3860 C   0  0  0  0  0  0  0  0  0  0  0  0
  -42.9900  -26.9870  -35.3010 C   0  0  0  0  0  0  0  0  0  0  0  0
  -46.3610  -27.9420  -35.9000 C   0  0  0  0  0  0  0  0  0  0  0  0
  -42.4660  -26.7010  -34.1340 N   0  0  0  0  0  0  0  0  0  0  0  0
  -44.4780  -27.0730  -33.0590 N   0  0  0  0  0  0  0  0  0  0  0  0
  -45.1640  -27.7040  -36.4100 N   0  0  0  0  0  0  0  0  0  0  0  0
  -46.3350  -27.7640  -34.5860 N   0  0  0  0  0  0  0  0  0  0  0  0
  -42.4200  -26.3050  -31.5370 Cl  0  0  0  0  0  0  0  0  0  0  0  0
  -42.0010  -26.9540  -36.7520 Cl  0  0  0  0  0  0  0  0  0  0  0  0
  2  3  1  0
  3  4  2  0
  1  6  2  0
  4  6  1  0
  1  7  1  0
  2  7  2  0
  3  8  1  0
  5  8  1  0
  2  9  1  0
  5  9  2  0
  1 10  1  0
  4 11  1  0
M  END
$$$$
7OP9_06K_B_301
     RDKit          3D

 11 12  0  0  0  0  0  0  0  0999 V2000
    0.6370   23.8560  -13.2610 C   0  0  0  0  0  0  0  0  0  0  0  0
    1.0580   21.9040  -12.1050 C   0  0  0  0  0  0  0  0  0  0  0  0
    0.7750   22.5520  -10.9440 C   0  0  0  0  0  0  0  0  0  0  0  0
    0.4070   23.9110  -11.0120 C   0  0  0  0  0  0  0  0  0  0  0  0
    1.2950   20.5110  -10.4570 C   0  0  0  0  0  0  0  0  0  0  0  0
    0.3490   24.5220  -12.1680 N   0  0  0  0  0  0  0  0  0  0  0  0
    0.9760   22.5830  -13.2710 N   0  0  0  0  0  0  0  0  0  0  0  0
    0.9250   21.6670   -9.9270 N   0  0  0  0  0  0  0  0  0  0  0  0
    1.3750   20.6230  -11.7740 N   0  0  0  0  0  0  0  0  0  0  0  0
    0.5520   24.7300  -14.7770 Cl  0  0  0  0  0  0  0  0  0  0  0  0
   -0.0010   24.7760   -9.5450 Cl  0  0  0  0  0  0  0  0  0  0  0  0
  2  3  1  0
  3  4  2  0
  1  6  2  0
  4  6  1  0
  1  7  1  0
  2  7  2  0
  3  8  1  0
  5  8  1  0
  2  9  1  0
  5  9  2  0
  1 10  1  0
  4 11  1  0
M  END
$$$$
