7USH_82V_A_501
     RDKit          3D

 43 47  0  0  0  0  0  0  0  0999 V2000
    3.0125    4.4437    4.2482 C   0  0  0  0  0  0  0  0  0  0  0  0
   -1.6108    2.9563    2.6072 C   0  0  0  0  0  0  0  0  0  0  0  0
   -2.5750    0.8487    1.7035 C   0  0  0  0  0  0  0  0  0  0  0  0
   -0.3637   -0.3658    1.4074 C   0  0  0  0  0  0  0  0  0  0  0  0
    1.1770   -2.5857    0.6335 C   0  0  0  0  0  0  0  0  0  0  0  0
    3.3908   -3.6427    0.4133 C   0  0  0  0  0  0  0  0  0  0  0  0
    0.9716   -0.4903    1.8366 C   0  0  0  0  0  0  0  0  0  0  0  0
   -2.1128    5.0637    3.4028 O   0  0  0  0  0  0  0  0  0  0  0  0
   -1.2465    4.1953    3.1148 C   0  0  0  0  0  0  0  0  0  0  0  0
    0.1185    4.4492    3.2996 C   0  0  0  0  0  0  0  0  0  0  0  0
    1.0657    3.4474    2.9569 C   0  0  0  0  0  0  0  0  0  0  0  0
    2.4854    3.6595    3.1225 N   0  0  0  0  0  0  0  0  0  0  0  0
    3.4188    2.8215    2.3571 C   0  0  0  0  0  0  0  0  0  0  0  0
    4.7606    3.5357    2.1765 C   0  0  0  0  0  0  0  0  0  0  0  0
    5.2501    4.0016    3.4172 O   0  0  0  0  0  0  0  0  0  0  0  0
    4.3943    5.0126    3.9096 C   0  0  0  0  0  0  0  0  0  0  0  0
    0.6383    2.2732    2.4771 O   0  0  0  0  0  3  0  0  0  0  0  0
   -0.6520    2.0100    2.3044 C   0  0  0  0  0  0  0  0  0  0  0  0
   -3.1338    2.3481    2.2546 S   0  0  0  0  0  0  0  0  0  0  0  0
   -1.1784    0.8090    1.8006 C   0  0  0  0  0  0  0  0  0  0  0  0
   -0.9223   -1.3820    0.6087 C   0  0  0  0  0  0  0  0  0  0  0  0
   -0.1536   -2.4859    0.2230 C   0  0  0  0  0  0  0  0  0  0  0  0
    1.9726   -3.6637    0.2316 O   0  0  0  0  0  0  0  0  0  0  0  0
    3.7443   -2.9904    1.7559 C   0  0  0  0  0  0  0  0  0  0  0  0
    3.0507   -1.7480    1.9006 O   0  0  0  0  0  0  0  0  0  0  0  0
    1.7315   -1.6010    1.4597 C   0  0  0  0  0  0  0  0  0  0  0  0
    2.3397    5.2989    4.4750 H   0  0  0  0  0  0  0  0  0  0  0  0
    3.0868    3.7920    5.1454 H   0  0  0  0  0  0  0  0  0  0  0  0
   -3.2070    0.0440    1.3526 H   0  0  0  0  0  0  0  0  0  0  0  0
    3.7864   -4.6795    0.3742 H   0  0  0  0  0  0  0  0  0  0  0  0
    3.8515   -3.0551   -0.4098 H   0  0  0  0  0  0  0  0  0  0  0  0
    1.4148    0.2495    2.4897 H   0  0  0  0  0  0  0  0  0  0  0  0
    0.4263    5.3987    3.7164 H   0  0  0  0  0  0  0  0  0  0  0  0
    3.0130    2.5881    1.3498 H   0  0  0  0  0  0  0  0  0  0  0  0
    3.5775    1.8658    2.9018 H   0  0  0  0  0  0  0  0  0  0  0  0
    5.4933    2.8150    1.7559 H   0  0  0  0  0  0  0  0  0  0  0  0
    4.6649    4.3667    1.4400 H   0  0  0  0  0  0  0  0  0  0  0  0
    4.3031    5.8535    3.1838 H   0  0  0  0  0  0  0  0  0  0  0  0
    4.8410    5.4333    4.8348 H   0  0  0  0  0  0  0  0  0  0  0  0
   -1.9458   -1.3112    0.2627 H   0  0  0  0  0  0  0  0  0  0  0  0
   -0.5864   -3.2524   -0.4066 H   0  0  0  0  0  0  0  0  0  0  0  0
    4.8386   -2.8153    1.8211 H   0  0  0  0  0  0  0  0  0  0  0  0
    3.4431   -3.6703    2.5816 H   0  0  0  0  0  0  0  0  0  0  0  0
  4  7  4  0
  2  9  4  0
  8  9  2  0
  9 10  4  0
 10 11  4  0
 11 12  1  0
  1 12  1  0
 12 13  1  0
 13 14  1  0
 14 15  1  0
  1 16  1  0
 15 16  1  0
 11 17  4  0
  2 18  4  0
 17 18  4  0
  3 19  4  0
  2 19  4  0
  3 20  4  0
  4 20  1  0
 18 20  4  0
  4 21  4  0
  5 22  4  0
 21 22  4  0
  5 23  1  0
  6 23  1  0
  6 24  1  0
 24 25  1  0
 25 26  1  0
  7 26  4  0
  5 26  4  0
  1 27  1  0
  1 28  1  0
  3 29  1  0
  6 30  1  0
  6 31  1  0
  7 32  1  0
 10 33  1  0
 13 34  1  0
 13 35  1  0
 14 36  1  0
 14 37  1  0
 16 38  1  0
 16 39  1  0
 21 40  1  0
 22 41  1  0
 24 42  1  0
 24 43  1  0
M  CHG  1  17   1
M  END
