
     RDKit          3D

 31 34  0  0  0  0  0  0  0  0999 V2000
   10.8647    0.6573   19.0835 N   0  0  0  0  0  0  0  0  0  0  0  0
   11.3890   -2.2793   15.2567 N   0  0  0  0  0  0  0  0  0  0  0  0
    8.0892   -1.8238   26.0107 C   0  0  0  0  0  0  0  0  0  0  0  0
    8.4151   -2.9924   26.6604 C   0  0  0  0  0  0  0  0  0  0  0  0
    9.7565   -0.0700   21.2411 C   0  0  1  0  0  0  0  0  0  0  0  0
    9.6376    0.1651   19.7212 C   0  0  0  0  0  0  0  0  0  0  0  0
   11.7548    1.4685   19.9207 C   0  0  0  0  0  0  0  0  0  0  0  0
    9.8061    1.5014   23.1940 C   0  0  0  0  0  0  0  0  0  0  0  0
    8.6674    2.2108   25.7112 C   0  0  0  0  0  0  0  0  0  0  0  0
   10.5843    2.0237   24.2408 C   0  0  0  0  0  0  0  0  0  0  0  0
   11.4090   -0.7309   17.1124 C   0  0  0  0  0  0  0  0  0  0  0  0
   12.6853   -2.7631   17.2399 C   0  0  0  0  0  0  0  0  0  0  0  0
   12.2763   -1.5639   17.8184 C   0  0  0  0  0  0  0  0  0  0  0  0
   10.8602   -1.5901   22.8205 N   0  0  0  0  0  0  0  0  0  0  0  0
   10.5646   -1.3633   21.4932 C   0  0  0  0  0  0  0  0  0  0  0  0
   10.8962   -2.1228   20.5876 O   0  0  0  0  0  0  0  0  0  0  0  0
   10.6724   -2.8750   23.4480 C   0  0  0  0  0  0  0  0  0  0  0  0
    8.4345    1.3351   23.4657 C   0  0  0  0  0  0  0  0  0  0  0  0
    7.8659    1.6850   24.7009 C   0  0  0  0  0  0  0  0  0  0  0  0
   10.0287    2.3787   25.4782 C   0  0  0  0  0  0  0  0  0  0  0  0
   10.9676    0.5470   17.6996 C   0  0  0  0  0  0  0  0  0  0  0  0
   11.0220   -1.1099   15.8354 C   0  0  0  0  0  0  0  0  0  0  0  0
   12.2144   -3.0768   15.9729 C   0  0  0  0  0  0  0  0  0  0  0  0
    9.7294   -2.6892   24.5956 C   0  0  0  0  0  0  0  0  0  0  0  0
    8.8503   -1.6463   24.8195 C   0  0  0  0  0  0  0  0  0  0  0  0
   11.0250    2.1173   21.1101 C   0  0  0  0  0  0  0  0  0  0  0  0
   10.3614    1.1126   21.9692 N   0  0  0  0  0  0  0  0  0  0  0  0
   10.7180    1.4731   16.9324 O   0  0  0  0  0  0  0  0  0  0  0  0
    9.6316   -3.8662   25.8381 S   0  0  0  0  0  0  0  0  0  0  0  0
    6.1677    1.4346   24.9072 Cl  0  0  0  0  0  0  0  0  0  0  0  0
    8.0485    2.6628   27.2572 Cl  0  0  0  0  0  0  0  0  0  0  0  0
  3  4  4  0
  1  6  1  0
  5  6  1  0
  1  7  1  0
  8 10  4  0
 12 13  4  0
 11 13  4  0
  5 15  1  6
 14 15  1  0
 15 16  2  0
 14 17  1  0
  8 18  4  0
 18 19  4  0
  9 19  4  0
 10 20  4  0
  9 20  4  0
 11 21  1  0
  1 21  1  0
  2 22  4  0
 11 22  4  0
 12 23  4  0
  2 23  4  0
 17 24  1  0
 24 25  4  0
  3 25  4  0
  7 26  1  0
  5 27  1  0
 26 27  1  0
  8 27  1  0
 21 28  2  0
 24 29  4  0
  4 29  4  0
 19 30  1  0
  9 31  1  0
M  END
