7NF3_4LU_A_603
     RDKit          3D

 36 39  0  0  0  0  0  0  0  0999 V2000
   12.1503   18.5517   -3.8508 C   0  0  0  0  0  0  0  0  0  0  0  0
   11.5282   17.3500   -3.5470 C   0  0  0  0  0  0  0  0  0  0  0  0
   10.9713   17.1211   -2.2794 C   0  0  0  0  0  0  0  0  0  0  0  0
   12.9865   21.8088   -2.3217 C   0  0  0  0  0  0  0  0  0  0  0  0
   11.0508   18.1412   -1.3003 C   0  0  0  0  0  0  0  0  0  0  0  0
   13.2088   23.8214   -0.5118 N   0  0  0  0  0  0  0  0  0  0  0  0
   13.7148   23.9911   -1.7336 C   0  0  0  0  0  0  0  0  0  0  0  0
   10.6694   16.5443    0.6031 C   0  0  0  0  0  0  0  0  0  0  0  0
   10.4226   17.8889   -0.0328 C   0  0  1  0  0  0  0  0  0  0  0  0
   11.3161   20.1981    0.4651 C   0  0  0  0  0  0  0  0  0  0  0  0
   14.2812   25.0733   -2.0213 O   0  0  0  0  0  0  0  0  0  0  0  0
   13.5951   22.9730   -2.6282 N   0  0  0  0  0  0  0  0  0  0  0  0
   12.5855   22.6511   -0.1700 C   0  0  0  0  0  0  0  0  0  0  0  0
   12.1593   22.6306    1.0073 O   0  0  0  0  0  0  0  0  0  0  0  0
   12.4543   21.6084   -1.0621 C   0  0  0  0  0  0  0  0  0  0  0  0
   11.8087   20.3975   -0.6951 N   0  0  0  0  0  0  0  0  0  0  0  0
   10.6342   18.9875    0.9503 C   0  0  0  0  0  0  0  0  0  0  0  0
    8.8960   17.9152   -0.2863 C   0  0  0  0  0  0  0  0  0  0  0  0
   11.6961   19.3493   -1.6523 C   0  0  0  0  0  0  0  0  0  0  0  0
   10.3516   15.8238   -2.0483 C   0  0  0  0  0  0  0  0  0  0  0  0
   11.4758   16.3140   -4.6087 C   0  0  0  0  0  0  0  0  0  0  0  0
   12.2299   19.5348   -2.9085 C   0  0  0  0  0  0  0  0  0  0  0  0
   12.8915   20.7528   -3.3084 N   0  0  0  0  0  0  0  0  0  0  0  0
   13.4758   20.9159   -4.6189 C   0  0  0  0  0  0  0  0  0  0  0  0
   14.8259   20.3373   -4.7749 C   0  0  2  0  0  0  0  0  0  0  0  0
   15.7680   21.0264   -3.9463 O   0  0  0  0  0  0  0  0  0  0  0  0
   15.4160   20.3328   -6.1420 C   0  0  2  0  0  0  0  0  0  0  0  0
   14.5314   20.1862   -7.1940 O   0  0  0  0  0  0  0  0  0  0  0  0
   16.6349   19.5209   -6.3906 C   0  0  2  0  0  0  0  0  0  0  0  0
   17.6054   20.0700   -5.4790 O   0  0  0  0  0  0  0  0  0  0  0  0
   17.3021   19.7924   -7.7452 C   0  0  0  0  0  0  0  0  0  0  0  0
   17.2022   21.1175   -8.1243 O   0  0  0  0  0  0  0  0  0  0  0  0
   17.8000   21.3761   -9.6844 P   0  0  1  0  0  5  0  0  0  0  0  0
   19.2822   20.9924   -9.7207 O   0  0  0  0  0  0  0  0  0  0  0  0
   17.0167   20.4379  -10.8252 O   0  0  0  0  0  0  0  0  0  0  0  0
   17.5660   23.0058  -10.0600 O   0  0  0  0  0  0  0  0  0  0  0  0
  1  2  2  0
  2  3  1  0
  3  5  2  0
  6  7  1  0
  8  9  1  1
  9  5  1  6
  7 11  2  0
  4 12  1  0
  7 12  1  0
  6 13  1  0
 13 14  2  0
  4 15  2  0
 13 15  1  0
 10 16  2  0
 15 16  1  0
  9 17  1  0
 17 10  1  6
 18  9  1  6
  5 19  1  0
 16 19  1  0
 20  3  1  1
 21  2  1  6
  1 22  1  0
 19 22  2  0
 22 23  1  0
  4 23  1  0
 24 23  1  6
 24 25  1  0
 25 26  1  1
 25 27  1  0
 27 28  1  6
 27 29  1  0
 29 30  1  1
 29 31  1  0
 31 32  1  1
 32 33  1  0
 33 34  2  0
 33 35  1  6
 33 36  1  0
M  CHG  1  16   1
M  END
$$$$
