7XRL_FWK_A_605
     RDKit          3D

 34 36  0  0  0  0  0  0  0  0999 V2000
    2.2826   -2.3203    0.7936 C   0  0  0  0  0  0  0  0  0  0  0  0
    2.0258   -0.8810    1.2836 C   0  0  1  0  0  0  0  0  0  0  0  0
    1.4673   -0.1073    0.2401 O   0  0  0  0  0  0  0  0  0  0  0  0
    1.1078   -0.8183    2.5174 C   0  0  1  0  0  0  0  0  0  0  0  0
    1.6919   -0.0571    3.5507 O   0  0  0  0  0  0  0  0  0  0  0  0
   -0.1507   -0.1747    1.9756 C   0  0  1  0  0  0  0  0  0  0  0  0
   -0.7566    0.6858    2.9053 O   0  0  0  0  0  0  0  0  0  0  0  0
    0.3641    0.5953    0.7688 C   0  0  2  0  0  0  0  0  0  0  0  0
   -0.6904    0.7566   -0.2405 N   0  0  0  0  0  0  0  0  0  0  0  0
   -1.8669    1.4200   -0.0850 C   0  0  0  0  0  0  0  0  0  0  0  0
   -2.6356    1.4360   -1.2084 N   0  0  0  0  0  0  0  0  0  0  0  0
   -1.8843    0.7534   -2.0915 C   0  0  0  0  0  0  0  0  0  0  0  0
   -0.7247    0.3529   -1.5204 C   0  0  0  0  0  0  0  0  0  0  0  0
    0.2241   -0.3310   -2.2056 N   0  0  0  0  0  0  0  0  0  0  0  0
   -0.0187   -0.6309   -3.5169 C   0  0  0  0  0  0  0  0  0  0  0  0
   -1.1896   -0.2396   -4.1147 N   0  0  0  0  0  0  0  0  0  0  0  0
   -2.1420    0.4568   -3.4252 C   0  0  0  0  0  0  0  0  0  0  0  0
   -3.3517    0.8620   -4.0660 N   0  0  0  0  0  0  0  0  0  0  0  0
    1.0287   -3.0287    0.2740 C   0  0  0  0  0  0  0  0  0  0  0  0
    2.7236   -2.9196    1.6196 H   0  0  0  0  0  0  0  0  0  0  0  0
    3.0306   -2.2864   -0.0281 H   0  0  0  0  0  0  0  0  0  0  0  0
    3.0188   -0.4471    1.5376 H   0  0  0  0  0  0  0  0  0  0  0  0
    0.8748   -1.8253    2.9262 H   0  0  0  0  0  0  0  0  0  0  0  0
    1.8938    0.8483    3.1949 H   0  0  0  0  0  0  0  0  0  0  0  0
   -0.8680   -0.9622    1.6432 H   0  0  0  0  0  0  0  0  0  0  0  0
   -1.2013    0.1040    3.5753 H   0  0  0  0  0  0  0  0  0  0  0  0
    0.7135    1.6055    1.0818 H   0  0  0  0  0  0  0  0  0  0  0  0
   -2.1665    1.8975    0.8388 H   0  0  0  0  0  0  0  0  0  0  0  0
    0.7184   -1.1788   -4.0874 H   0  0  0  0  0  0  0  0  0  0  0  0
   -4.0837    1.3950   -3.5457 H   0  0  0  0  0  0  0  0  0  0  0  0
   -3.5178    0.6267   -5.0695 H   0  0  0  0  0  0  0  0  0  0  0  0
    0.2851   -3.1686    1.0849 H   0  0  0  0  0  0  0  0  0  0  0  0
    0.5649   -2.4529   -0.5520 H   0  0  0  0  0  0  0  0  0  0  0  0
    1.3078   -4.0307   -0.1141 H   0  0  0  0  0  0  0  0  0  0  0  0
  2  1  1  0
  2  3  1  0
  2  4  1  0
  4  5  1  0
  4  6  1  0
  6  7  1  0
  6  8  1  0
  3  8  1  0
  8  9  1  0
  9 10  1  0
 10 11  2  0
 11 12  1  0
  9 13  1  0
 12 13  2  0
 13 14  1  0
 14 15  2  0
 15 16  1  0
 12 17  1  0
 16 17  2  0
 17 18  1  0
  1 19  1  0
  1 20  1  0
  1 21  1  0
  2 22  1  1
  4 23  1  1
  5 24  1  0
  6 25  1  6
  7 26  1  0
  8 27  1  1
 10 28  1  0
 15 29  1  0
 18 30  1  0
 18 31  1  0
 19 32  1  0
 19 33  1  0
 19 34  1  0
M  END
