7BMI_U4B_A_802
     RDKit          3D

 17 17  0  0  0  0  0  0  0  0999 V2000
   -2.2380   -0.4514   -0.6060 C   0  0  0  0  0  0  0  0  0  0  0  0
   -0.7966   -0.5038   -0.2557 C   0  0  0  0  0  0  0  0  0  0  0  0
   -0.2131   -1.7250    0.1207 C   0  0  0  0  0  0  0  0  0  0  0  0
    1.1401   -1.7753    0.4498 C   0  0  0  0  0  0  0  0  0  0  0  0
    1.3763    0.5585    0.0492 C   0  0  0  0  0  0  0  0  0  0  0  0
    2.2696    1.7346    0.0300 C   0  0  0  0  0  0  0  0  0  0  0  0
    0.0113    0.6522   -0.2911 C   0  0  0  0  0  0  0  0  0  0  0  0
   -0.5204    1.8489   -0.6504 F   0  0  0  0  0  0  0  0  0  0  0  0
    1.8941   -0.6482    0.4073 N   0  0  0  0  0  0  0  0  0  0  0  0
   -2.8367    0.7482   -0.9817 O   0  0  0  0  0  0  0  0  0  0  0  0
   -2.9396   -1.4985   -0.5668 O   0  0  0  0  0  0  0  0  0  0  0  0
    3.4835    1.6012    0.3426 O   0  0  0  0  0  0  0  0  0  0  0  0
    1.7929    2.9925   -0.3285 O   0  0  0  0  0  0  0  0  0  0  0  0
   -0.7968   -2.6362    0.1611 H   0  0  0  0  0  0  0  0  0  0  0  0
    1.5931   -2.7139    0.7401 H   0  0  0  0  0  0  0  0  0  0  0  0
   -3.8202    0.7868   -1.2213 H   0  0  0  0  0  0  0  0  0  0  0  0
    2.4073    3.7979   -0.3410 H   0  0  0  0  0  0  0  0  0  0  0  0
  1  2  1  0
  2  3  2  0
  3  4  1  0
  5  6  1  0
  2  7  1  0
  5  7  2  0
  7  8  1  0
  4  9  2  0
  5  9  1  0
  1 10  1  0
  1 11  2  0
  6 12  2  0
  6 13  1  0
  3 14  1  0
  4 15  1  0
 10 16  1  0
 13 17  1  0
M  END
