7PK0_BYC_A_402
     RDKit          3D

 56 59  0  0  0  0  0  0  0  0999 V2000
  -18.0953   38.1441  -20.1800 N   0  0  0  0  0  0  0  0  0  0  0  0
  -16.8177   27.8180  -24.6443 O   0  0  0  0  0  0  0  0  0  0  0  0
  -16.5636   28.9957  -23.7070 P   0  0  2  0  0  0  0  0  0  0  0  0
   -7.3232   34.5119  -16.6076 C   0  0  0  0  0  0  0  0  0  0  0  0
  -17.4972   34.1995  -23.5307 C   0  0  1  0  0  0  0  0  0  0  0  0
   -8.8295   35.2284  -16.1283 S   0  0  0  0  0  0  0  0  0  0  0  0
  -18.0218   38.1760  -21.5285 C   0  0  0  0  0  0  0  0  0  0  0  0
  -14.9957   28.9052  -23.0659 O   0  0  0  0  0  0  0  0  0  0  0  0
  -17.7758   27.4009  -21.7676 P   0  0  1  0  0  0  0  0  0  0  0  0
   -6.2093   34.5149  -15.6114 C   0  0  0  0  0  0  0  0  0  0  0  0
  -16.1553   33.7179  -23.9396 C   0  0  2  0  0  0  0  0  0  0  0  0
  -15.1957   34.6961  -24.1312 O   0  0  0  0  0  0  0  0  0  0  0  0
  -10.0035   35.4863  -17.4390 C   0  0  0  0  0  0  0  0  0  0  0  0
  -17.8655   37.0699  -22.2704 N   0  0  0  0  0  0  0  0  0  0  0  0
  -17.6744   28.9504  -22.4449 O   0  0  0  0  0  0  0  0  0  0  0  0
   -6.4717   34.7368  -14.2748 C   0  0  0  0  0  0  0  0  0  0  0  0
  -16.4774   32.9271  -25.1836 C   0  0  2  0  0  0  0  0  0  0  0  0
  -16.2307   33.5963  -26.3477 O   0  0  0  0  0  0  0  0  0  0  0  0
  -14.8125   33.2450  -27.1274 P   0  0  1  0  0  0  0  0  0  0  0  0
  -10.3330   34.2592  -18.2094 C   0  0  0  0  0  0  0  0  0  0  0  0
  -17.7779   35.8846  -21.6615 C   0  0  0  0  0  0  0  0  0  0  0  0
  -19.0461   27.3270  -20.6841 O   0  0  0  0  0  0  0  0  0  0  0  0
   -5.4810   34.7543  -13.3093 C   0  0  0  0  0  0  0  0  0  0  0  0
  -17.8542   32.4629  -24.9215 C   0  0  2  0  0  0  0  0  0  0  0  0
  -18.3696   33.1822  -23.8374 O   0  0  0  0  0  0  0  0  0  0  0  0
   -9.7554   33.0336  -17.7455 N   0  0  0  0  0  0  0  0  0  0  0  0
   -7.0255   33.9796  -17.6934 O   0  0  0  0  0  0  0  0  0  0  0  0
  -18.0670   26.4569  -22.9233 O   0  0  0  0  0  0  0  0  0  0  0  0
   -4.1765   34.5407  -13.6988 C   0  0  0  0  0  0  0  0  0  0  0  0
  -17.9216   31.0013  -24.4382 C   0  0  0  0  0  0  0  0  0  0  0  0
  -16.6616   30.4341  -24.5606 O   0  0  0  0  0  0  0  0  0  0  0  0
  -17.8519   35.8401  -20.2810 C   0  0  0  0  0  0  0  0  0  0  0  0
  -10.1227   31.8381  -18.4679 C   0  0  0  0  0  0  0  0  0  0  0  0
  -10.9850   31.8478  -19.3780 O   0  0  0  0  0  0  0  0  0  0  0  0
  -18.0133   36.9762  -19.5049 C   0  0  0  0  0  0  0  0  0  0  0  0
  -18.0881   36.9175  -18.0937 N   0  0  0  0  0  0  0  0  0  0  0  0
  -16.2882   27.0116  -21.1123 O   0  0  0  0  0  0  0  0  0  0  0  0
   -3.9135   34.3190  -15.0301 C   0  0  0  0  0  0  0  0  0  0  0  0
   -9.4471   30.5766  -18.0949 C   0  0  0  0  0  0  0  0  0  0  0  0
  -17.7397   34.5666  -19.9413 N   0  0  0  0  0  0  0  0  0  0  0  0
  -13.4507   33.3646  -26.1341 O   0  0  0  0  0  0  0  0  0  0  0  0
   -4.9078   34.3023  -15.9969 C   0  0  0  0  0  0  0  0  0  0  0  0
   -9.8742   29.3798  -18.8548 C   0  0  0  0  0  0  0  0  0  0  0  0
  -17.6005   33.8274  -21.0538 C   0  0  0  0  0  0  0  0  0  0  0  0
  -14.8933   31.7454  -27.4589 O   0  0  0  0  0  0  0  0  0  0  0  0
  -11.1748   29.5410  -19.4468 N   0  0  0  0  0  0  0  0  0  0  0  0
  -17.6201   34.6239  -22.1556 N   0  0  0  0  0  0  0  0  0  0  0  0
  -14.6029   33.9952  -28.6182 O   0  0  0  0  0  0  0  0  0  0  0  0
  -12.3309   28.8300  -19.0970 C   0  0  0  0  0  0  0  0  0  0  0  0
  -12.1833   27.9329  -18.1878 O   0  0  0  0  0  0  0  0  0  0  0  0
  -13.6878   28.9796  -19.6262 C   0  0  2  0  0  0  0  0  0  0  0  0
  -14.3518   29.9019  -18.7848 O   0  0  0  0  0  0  0  0  0  0  0  0
  -14.4580   27.7186  -19.7391 C   0  0  1  0  0  0  0  0  0  0  0  0
  -15.8629   28.0562  -20.2747 C   0  0  0  0  0  0  0  0  0  0  0  0
  -13.8229   26.8074  -20.7890 C   0  0  0  0  0  0  0  0  0  0  0  0
  -14.5890   26.9261  -18.4731 C   0  0  0  0  0  0  0  0  0  0  0  0
  2  3  2  0
  4  6  1  0
  1  7  2  0
  3  8  1  1
  4 10  1  0
  5 11  1  0
 11 12  1  6
  6 13  1  0
  7 14  1  0
  3 15  1  0
  9 15  1  0
 10 16  2  0
 11 17  1  0
 17 18  1  6
 18 19  1  0
 13 20  1  0
 14 21  2  0
  9 22  1  1
 16 23  1  0
 17 24  1  0
  5 25  1  0
 24 25  1  0
 20 26  1  0
  4 27  2  0
  9 28  2  0
 23 29  2  0
 24 30  1  1
  3 31  1  0
 30 31  1  0
 21 32  1  0
 26 33  1  0
 33 34  2  0
  1 35  1  0
 32 35  2  0
 35 36  1  0
  9 37  1  0
 29 38  1  0
 33 39  1  0
 32 40  1  0
 19 41  1  1
 10 42  1  0
 38 42  2  0
 39 43  1  0
 40 44  2  0
 19 45  2  0
 43 46  1  0
  5 47  1  1
 21 47  1  0
 44 47  1  0
 19 48  1  0
 46 49  1  0
 49 50  2  0
 49 51  1  0
 51 52  1  1
 51 53  1  0
 37 54  1  0
 53 54  1  0
 53 55  1  6
 53 56  1  0
M  END
$$$$
