7VB8_STL_A_401
     RDKit          3D

 17 18  0  0  0  0  0  0  0  0999 V2000
   -4.9562    9.3794  -25.7223 C   0  0  0  0  0  0  0  0  0  0  0  0
   -4.1570    9.2420  -24.6069 C   0  0  0  0  0  0  0  0  0  0  0  0
   -4.5188    9.9043  -23.4529 C   0  0  0  0  0  0  0  0  0  0  0  0
   -5.6517   10.6850  -23.4149 C   0  0  0  0  0  0  0  0  0  0  0  0
   -6.4838   10.8450  -24.5296 C   0  0  0  0  0  0  0  0  0  0  0  0
   -6.0970   10.1713  -25.6682 C   0  0  0  0  0  0  0  0  0  0  0  0
   -7.6783   11.6790  -24.4591 C   0  0  0  0  0  0  0  0  0  0  0  0
   -8.4225   12.0136  -25.4678 C   0  0  0  0  0  0  0  0  0  0  0  0
   -9.6569   12.7832  -25.3805 C   0  0  0  0  0  0  0  0  0  0  0  0
  -10.5665   12.8794  -26.4134 C   0  0  0  0  0  0  0  0  0  0  0  0
  -11.7384   13.6166  -26.3154 C   0  0  0  0  0  0  0  0  0  0  0  0
  -12.0274   14.2891  -25.1480 C   0  0  0  0  0  0  0  0  0  0  0  0
  -11.1386   14.2121  -24.0992 C   0  0  0  0  0  0  0  0  0  0  0  0
   -9.9815   13.4742  -24.2193 C   0  0  0  0  0  0  0  0  0  0  0  0
  -13.1791   15.0414  -24.9870 O   0  0  0  0  0  0  0  0  0  0  0  0
   -3.7441    9.8032  -22.2829 O   0  0  0  0  0  0  0  0  0  0  0  0
   -4.6190    8.7192  -26.9164 O   0  0  0  0  0  0  0  0  0  0  0  0
  1  2  2  0
  2  3  1  0
  3  4  2  0
  4  5  1  0
  1  6  1  0
  5  6  2  0
  5  7  1  0
  7  8  2  0
  8  9  1  0
  9 10  2  0
 10 11  1  0
 11 12  2  0
 12 13  1  0
  9 14  1  0
 13 14  2  0
 12 15  1  0
  3 16  1  0
  1 17  1  0
M  END
$$$$
