
     RDKit          3D

 32 34  0  0  0  0  0  0  0  0999 V2000
    8.6492  -12.6701   27.0597 P   0  0  0  0  0  5  0  0  0  0  0  0
    9.9427  -11.9482   27.1889 O   0  0  0  0  0  0  0  0  0  0  0  0
    8.9087  -14.1956   26.6077 O   0  0  0  0  0  0  0  0  0  0  0  0
    7.9711  -12.9512   28.4848 O   0  0  0  0  0  0  0  0  0  0  0  0
    7.3806  -12.0667   25.9916 C   0  0  0  0  0  0  0  0  0  0  0  0
    6.7577  -10.4123   26.1608 P   0  0  2  0  0  5  0  0  0  0  0  0
    7.7387   -9.3646   26.5664 O   0  0  0  0  0  0  0  0  0  0  0  0
    5.5110  -10.5019   27.1786 O   0  0  0  0  0  0  0  0  0  0  0  0
    6.0409  -10.1290   24.7678 O   0  0  0  0  0  0  0  0  0  0  0  0
    6.6841  -10.2014   23.3212 P   0  0  2  0  0  5  0  0  0  0  0  0
    8.0718  -10.7415   23.2481 O   0  0  0  0  0  0  0  0  0  0  0  0
    6.5834   -8.7031   22.7672 O   0  0  0  0  0  0  0  0  0  0  0  0
    5.6049  -10.9624   22.4151 O   0  0  0  0  0  0  0  0  0  0  0  0
    4.3230  -11.1731   22.9764 C   0  0  0  0  0  0  0  0  0  0  0  0
    3.2533  -11.1355   21.8888 C   0  0  1  0  0  0  0  0  0  0  0  0
    2.8290   -9.7744   21.6842 O   0  0  0  0  0  0  0  0  0  0  0  0
    3.7416  -11.6422   20.5315 C   0  0  1  0  0  0  0  0  0  0  0  0
    3.6633  -13.0567   20.3779 O   0  0  0  0  0  0  0  0  0  0  0  0
    2.7631  -10.9518   19.5944 C   0  0  1  0  0  0  0  0  0  0  0  0
    1.5148  -11.6783   19.6078 O   0  0  0  0  0  0  0  0  0  0  0  0
    2.5892   -9.5848   20.2638 C   0  0  2  0  0  0  0  0  0  0  0  0
    3.4517   -8.5007   19.8345 N   0  0  0  0  0  0  0  0  0  0  0  0
    4.7810   -8.4095   20.1875 C   0  0  0  0  0  0  0  0  0  0  0  0
    5.3613   -7.3375   19.6896 N   0  0  0  0  0  0  0  0  0  0  0  0
    4.3697   -6.7202   18.9749 C   0  0  0  0  0  0  0  0  0  0  0  0
    4.3949   -5.4929   18.2078 C   0  0  0  0  0  0  0  0  0  0  0  0
    5.3585   -4.7436   18.0808 O   0  0  0  0  0  0  0  0  0  0  0  0
    3.1710   -5.2231   17.6131 N   0  0  0  0  0  0  0  0  0  0  0  0
    2.0383   -5.9906   17.7747 C   0  0  0  0  0  0  0  0  0  0  0  0
    0.9191   -5.5348   17.1589 N   0  0  0  0  0  0  0  0  0  0  0  0
    2.0004   -7.0970   18.4651 N   0  0  0  0  0  0  0  0  0  0  0  0
    3.1828   -7.4193   19.0421 C   0  0  0  0  0  0  0  0  0  0  0  0
  1  2  2  0
  1  3  1  0
  1  4  1  0
  1  5  1  0
  5  6  1  0
  6  7  2  0
  6  8  1  1
  6  9  1  0
 10  9  1  0
 10 11  2  0
 10 12  1  6
 10 13  1  0
 13 14  1  0
 15 14  1  1
 15 16  1  0
 15 17  1  0
 17 18  1  1
 17 19  1  0
 19 20  1  1
 16 21  1  0
 19 21  1  0
 21 22  1  6
 22 23  4  0
 23 24  4  0
 24 25  4  0
 25 26  4  0
 26 27  2  0
 26 28  4  0
 28 29  4  0
 29 30  1  0
 29 31  4  0
 22 32  4  0
 25 32  4  0
 31 32  4  0
M  END
