7OMJ_GCP_A_401
     RDKit          3D

 50 52  0  0  0  0  0  0  0  0999 V2000
    5.2229   -3.0901    2.7858 P   0  0  2  0  0  5  0  0  0  0  0  0
    5.2713   -1.9624    3.7928 O   0  0  0  0  0  0  0  0  0  0  0  0
    3.7700   -3.9377    2.9643 O   0  0  0  0  0  0  0  0  0  0  0  0
    6.5190   -4.1455    3.0535 O   0  0  0  0  0  0  0  0  0  0  0  0
    5.3174   -2.4154    1.0991 C   0  0  0  0  0  0  0  0  0  0  0  0
    4.7670   -3.6516   -0.1217 P   0  0  1  0  0  5  0  0  0  0  0  0
    5.6026   -3.5359   -1.3785 O   0  0  0  0  0  0  0  0  0  0  0  0
    5.0020   -5.1940    0.5318 O   0  0  0  0  0  0  0  0  0  0  0  0
    3.0991   -3.4694   -0.4408 O   0  0  0  0  0  0  0  0  0  0  0  0
    2.7909   -1.8392   -0.8243 P   0  0  1  0  0  5  0  0  0  0  0  0
    1.7060   -1.3303    0.0976 O   0  0  0  0  0  0  0  0  0  0  0  0
    4.1844   -0.9051   -0.5883 O   0  0  0  0  0  0  0  0  0  0  0  0
    2.2275   -1.7275   -2.4315 O   0  0  0  0  0  0  0  0  0  0  0  0
    3.1180   -2.4234   -3.2713 C   0  0  0  0  0  0  0  0  0  0  0  0
    3.6488   -3.6646   -2.5420 C   0  0  1  0  0  0  0  0  0  0  0  0
    4.6482   -3.2645   -1.6213 O   0  0  0  0  0  0  0  0  0  0  0  0
    2.5325   -4.4128   -1.7895 C   0  0  1  0  0  0  0  0  0  0  0  0
    2.6416   -5.8077   -1.9623 O   0  0  0  0  0  0  0  0  0  0  0  0
    2.7615   -3.9903   -0.3576 C   0  0  1  0  0  0  0  0  0  0  0  0
    2.3603   -4.9562    0.5869 O   0  0  0  0  0  0  0  0  0  0  0  0
    4.2566   -3.6883   -0.3324 C   0  0  2  0  0  0  0  0  0  0  0  0
    4.5588   -2.6553    0.6607 N   0  0  0  0  0  4  0  0  0  0  0  0
    5.7843   -2.1697    0.9867 C   0  0  0  0  0  0  0  0  0  0  0  0
    5.7600   -1.2974    2.0326 N   0  0  0  0  0  0  0  0  0  0  0  0
    4.4537   -1.2637    2.3595 C   0  0  0  0  0  0  0  0  0  0  0  0
    3.8179   -0.5647    3.3746 C   0  0  0  0  0  0  0  0  0  0  0  0
    4.4625    0.1934    4.1479 O   0  0  0  0  0  0  0  0  0  0  0  0
    2.4661   -0.7284    3.5159 N   0  0  0  0  0  4  0  0  0  0  0  0
    1.7607   -1.5691    2.6847 C   0  0  0  0  0  0  0  0  0  0  0  0
    0.3529   -1.7313    2.8531 N   0  0  0  0  0  0  0  0  0  0  0  0
    2.4046   -2.2549    1.6914 N   0  0  0  0  0  0  0  0  0  0  0  0
    3.7401   -2.0768    1.5509 C   0  0  0  0  0  0  0  0  0  0  0  0
    3.0624   -3.2516    2.8645 H   0  0  0  0  0  0  0  0  0  0  0  0
    6.3694   -4.5023    3.9652 H   0  0  0  0  0  0  0  0  0  0  0  0
    4.6686   -1.5182    1.0282 H   0  0  0  0  0  0  0  0  0  0  0  0
    6.3657   -2.1213    0.8946 H   0  0  0  0  0  0  0  0  0  0  0  0
    4.4058   -5.2265    1.3221 H   0  0  0  0  0  0  0  0  0  0  0  0
    4.3775   -0.9792    0.3796 H   0  0  0  0  0  0  0  0  0  0  0  0
    3.9803   -1.7736   -3.5433 H   0  0  0  0  0  0  0  0  0  0  0  0
    2.6033   -2.7651   -4.1989 H   0  0  0  0  0  0  0  0  0  0  0  0
    4.1153   -4.3311   -3.3016 H   0  0  0  0  0  0  0  0  0  0  0  0
    1.5158   -4.1037   -2.1168 H   0  0  0  0  0  0  0  0  0  0  0  0
    3.5729   -6.0782   -1.7462 H   0  0  0  0  0  0  0  0  0  0  0  0
    2.1888   -3.0537   -0.1706 H   0  0  0  0  0  0  0  0  0  0  0  0
    2.9854   -5.7253    0.5435 H   0  0  0  0  0  0  0  0  0  0  0  0
    4.8399   -4.6051   -0.0890 H   0  0  0  0  0  0  0  0  0  0  0  0
    6.6968   -2.4577    0.4783 H   0  0  0  0  0  0  0  0  0  0  0  0
    1.9645   -0.2112    4.2729 H   0  0  0  0  0  0  0  0  0  0  0  0
   -0.1584   -1.2143    3.6020 H   0  0  0  0  0  0  0  0  0  0  0  0
   -0.1829   -2.3677    2.2220 H   0  0  0  0  0  0  0  0  0  0  0  0
  1  2  2  0
  1  3  1  6
  1  4  1  0
  1  5  1  0
  5  6  1  0
  6  7  2  0
  6  8  1  1
  6  9  1  0
 10  9  1  1
 10 11  2  0
 10 12  1  0
 10 13  1  0
 13 14  1  0
 15 14  1  0
 15 16  1  0
 15 17  1  0
 17 18  1  0
 17 19  1  0
 19 20  1  0
 16 21  1  0
 19 21  1  0
 21 22  1  0
 22 23  4  0
 23 24  4  0
 24 25  4  0
 25 26  4  0
 26 27  2  0
 26 28  4  0
 28 29  4  0
 29 30  1  0
 29 31  4  0
 22 32  4  0
 25 32  4  0
 31 32  4  0
  3 33  1  0
  4 34  1  0
  5 35  1  0
  5 36  1  0
  8 37  1  0
 12 38  1  0
 14 39  1  0
 14 40  1  0
 15 41  1  6
 17 42  1  6
 18 43  1  0
 19 44  1  1
 20 45  1  0
 21 46  1  1
 23 47  1  0
 28 48  1  0
 30 49  1  0
 30 50  1  0
M  CHG  2  22   1  28   1
M  END
