1YV3_BIT_A_800
     RDKit          3D

 22 25  0  0  0  0  0  0  0  0999 V2000
   22.9990   37.7950   40.6810 O   0  0  0  0  0  0  0  0  0  0  0  0
   23.0680   37.9450   39.4470 C   0  0  0  0  0  0  0  0  0  0  0  0
   23.9040   37.2140   38.5620 C   0  0  0  0  0  0  0  0  0  0  0  0
   25.0030   36.4870   39.0470 C   0  0  0  0  0  0  0  0  0  0  0  0
   25.8610   35.8590   38.1640 C   0  0  0  0  0  0  0  0  0  0  0  0
   27.0600   35.0770   38.6340 C   0  0  0  0  0  0  0  0  0  0  0  0
   25.6730   35.9500   36.7440 C   0  0  0  0  0  0  0  0  0  0  0  0
   23.7310   37.3010   37.1470 C   0  0  0  0  0  0  0  0  0  0  0  0
   24.5960   36.6910   36.2360 C   0  0  0  0  0  0  0  0  0  0  0  0
   22.3500   39.0850   38.8070 C   0  0  2  0  0  0  0  0  0  0  0  0
   21.8050   38.6580   37.4350 C   0  0  0  0  0  0  0  0  0  0  0  0
   22.6760   37.9730   36.5960 N   0  0  0  0  0  0  0  0  0  0  0  0
   23.3890   40.1710   38.6920 O   0  0  0  0  0  0  0  0  0  0  0  0
   21.0570   39.5530   39.5140 C   0  0  0  0  0  0  0  0  0  0  0  0
   20.2420   40.0990   38.3440 C   0  0  0  0  0  0  0  0  0  0  0  0
   20.7300   39.3780   37.1490 N   0  0  0  0  0  0  0  0  0  0  0  0
   20.1270   39.6390   35.8890 C   0  0  0  0  0  0  0  0  0  0  0  0
   20.1720   38.5840   34.9500 C   0  0  0  0  0  0  0  0  0  0  0  0
   19.5630   38.7090   33.6860 C   0  0  0  0  0  0  0  0  0  0  0  0
   18.8640   39.8730   33.4120 C   0  0  0  0  0  0  0  0  0  0  0  0
   18.7800   40.9220   34.3520 C   0  0  0  0  0  0  0  0  0  0  0  0
   19.4380   40.8110   35.5870 C   0  0  0  0  0  0  0  0  0  0  0  0
  1  2  2  0
  2  3  1  0
  3  4  1  0
  4  5  2  0
  5  6  1  0
  5  7  1  0
  3  8  2  0
  7  9  2  0
  8  9  1  0
  2 10  1  0
 10 11  1  0
  8 12  1  0
 11 12  2  0
 10 13  1  6
 10 14  1  0
 14 15  1  0
 11 16  1  0
 15 16  1  0
 16 17  1  0
 17 18  2  0
 18 19  1  0
 19 20  2  0
 20 21  1  0
 17 22  1  0
 21 22  2  0
M  END
$$$$
