1OF1_SCT_A_400
     RDKit          3D

 18 20  0  0  0  0  0  0  0  0999 V2000
   31.0605   29.2808    9.0298 O   0  0  0  0  0  0  0  0  0  0  0  0
   28.3710   31.2495    5.6851 O   0  0  0  0  0  0  0  0  0  0  0  0
   31.5880   34.8993    7.5478 O   0  0  0  0  0  0  0  0  0  0  0  0
   35.1320   34.2346   10.1591 O   0  0  0  0  0  0  0  0  0  0  0  0
   31.9019   32.8215    8.3376 N   0  0  0  0  0  0  0  0  0  0  0  0
   33.3473   34.5750    8.8413 N   0  0  0  0  0  0  0  0  0  0  0  0
   29.1718   30.3056    7.8333 C   0  0  2  0  0  0  0  0  0  0  0  0
   29.4750   30.5982    6.3467 C   0  0  2  0  0  0  0  0  0  0  0  0
   30.7492   31.4938    6.3690 C   0  0  0  0  0  0  0  0  0  0  0  0
   30.6589   32.3382    7.6646 C   0  0  1  0  0  0  0  0  0  0  0  0
   29.6168   31.5956    8.6146 C   0  0  1  0  0  0  0  0  0  0  0  0
   29.8090   28.9993    8.3720 C   0  0  0  0  0  0  0  0  0  0  0  0
   32.2540   34.1079    8.2195 C   0  0  0  0  0  0  0  0  0  0  0  0
   29.3208   33.0119    8.1758 C   0  0  0  0  0  0  0  0  0  0  0  0
   34.1290   33.7973    9.5828 C   0  0  0  0  0  0  0  0  0  0  0  0
   33.7711   32.3482    9.7146 C   0  0  0  0  0  0  0  0  0  0  0  0
   32.6408   31.9613    9.0596 C   0  0  0  0  0  0  0  0  0  0  0  0
   34.6259   31.4021   10.5361 C   0  0  0  0  0  0  0  0  0  0  0  0
  8  2  1  1
  7  8  1  0
  8  9  1  0
 10  5  1  1
  9 10  1  0
  7 11  1  0
 10 11  1  0
  1 12  1  0
  7 12  1  1
  3 13  2  0
  5 13  1  0
  6 13  1  0
 10 14  1  0
 11 14  1  6
  4 15  2  0
  6 15  1  0
 15 16  1  0
  5 17  1  0
 16 17  2  0
 16 18  1  0
M  END
