
     RDKit          3D

 15 15  0  0  0  0  0  0  0  0999 V2000
    1.8412    0.4468   24.5196 N   0  0  0  0  0  0  0  0  0  0  0  0
    0.7023   -0.1566   25.2291 C   0  0  0  0  0  0  0  0  0  0  0  0
   -1.3616   -0.2599   27.3143 C   0  0  0  0  0  0  0  0  0  0  0  0
    0.1970    0.2305   29.1689 C   0  0  0  0  0  0  0  0  0  0  0  0
    2.9007    0.7215   25.5251 C   0  0  1  0  0  0  0  0  0  0  0  0
    2.1436    0.9318   26.8410 C   0  0  1  0  0  0  0  0  0  0  0  0
    1.6128    2.3733   26.9337 C   0  0  0  0  0  0  0  0  0  0  0  0
    1.0477   -0.1506   26.7288 C   0  0  1  0  0  0  0  0  0  0  0  0
    2.5386    3.2692   27.7107 C   0  0  0  0  0  0  0  0  0  0  0  0
   -0.0945   -0.0748   27.7257 C   0  0  0  0  0  0  0  0  0  0  0  0
    3.9055   -0.4383   25.6174 C   0  0  0  0  0  0  0  0  0  0  0  0
    4.2621   -1.1660   24.7052 O   0  0  0  0  0  0  0  0  0  0  0  0
    3.7611    2.7295   27.8792 O   0  0  0  0  0  0  0  0  0  0  0  0
    2.2662    4.3505   28.2043 O   0  0  0  0  0  0  0  0  0  0  0  0
    4.3833   -0.6392   26.8676 O   0  0  0  0  0  0  0  0  0  0  0  0
  1  2  1  0
  1  5  1  0
  5  6  1  0
  6  7  1  6
  2  8  1  0
  6  8  1  0
  7  9  1  0
  3 10  2  0
  4 10  1  0
  8 10  1  1
  5 11  1  1
 11 12  2  0
  9 13  1  0
  9 14  2  0
 11 15  1  0
M  END
