6M2B_EZO_A_403
     RDKit          3D

 39 41  0  0  0  0  0  0  0  0999 V2000
   32.8248  -22.0565   21.7139 C   0  0  0  0  0  0  0  0  0  0  0  0
   31.6296  -22.2823   21.0491 C   0  0  0  0  0  0  0  0  0  0  0  0
   30.4764  -22.3442   21.7745 C   0  0  0  0  0  0  0  0  0  0  0  0
   30.4685  -22.2126   23.1659 C   0  0  0  0  0  0  0  0  0  0  0  0
   31.6442  -21.9546   23.8334 C   0  0  0  0  0  0  0  0  0  0  0  0
   32.8212  -21.9013   23.0960 C   0  0  0  0  0  0  0  0  0  0  0  0
   31.7383  -21.7671   25.3202 C   0  0  0  0  0  0  0  0  0  0  0  0
   29.1858  -22.3152   23.8742 C   0  0  0  0  0  0  0  0  0  0  0  0
   26.3126  -22.7636   23.9619 C   0  0  0  0  0  0  0  0  0  0  0  0
   31.3746  -22.6573   26.1239 O   0  0  0  0  0  0  0  0  0  0  0  0
   32.1900  -20.6346   25.8009 O   0  0  0  0  0  0  0  0  0  0  0  0
   28.2466  -21.5306   23.6639 N   0  0  0  0  0  0  0  0  0  0  0  0
   27.0278  -21.6562   24.2894 N   0  0  0  0  0  0  0  0  0  0  0  0
   25.1184  -22.7091   23.3695 N   0  0  0  0  0  0  0  0  0  0  0  0
   24.6199  -23.9406   23.0406 C   0  0  0  0  0  0  0  0  0  0  0  0
   25.5125  -24.9345   23.3798 C   0  0  0  0  0  0  0  0  0  0  0  0
   26.9386  -24.3417   24.1077 S   0  0  0  0  0  0  0  0  0  0  0  0
   23.3653  -24.1111   22.2776 C   0  0  0  0  0  0  0  0  0  0  0  0
   22.1139  -23.9255   22.7900 C   0  0  0  0  0  0  0  0  0  0  0  0
   20.9559  -24.0330   22.0168 C   0  0  0  0  0  0  0  0  0  0  0  0
   21.1186  -24.2962   20.6714 C   0  0  0  0  0  0  0  0  0  0  0  0
   22.3886  -24.4823   20.1299 C   0  0  0  0  0  0  0  0  0  0  0  0
   23.5187  -24.3509   20.8949 C   0  0  0  0  0  0  0  0  0  0  0  0
   21.9320  -23.6242   24.5105 Cl  0  0  0  0  0  0  0  0  0  0  0  0
   26.3857  -20.4566   24.8767 C   0  0  0  0  0  0  0  0  0  0  0  0
   33.7107  -22.0041   21.1873 H   0  0  0  0  0  0  0  0  0  0  0  0
   31.6127  -22.4012   20.0242 H   0  0  0  0  0  0  0  0  0  0  0  0
   29.5823  -22.4928   21.2810 H   0  0  0  0  0  0  0  0  0  0  0  0
   33.7152  -21.7424   23.5866 H   0  0  0  0  0  0  0  0  0  0  0  0
   29.0608  -23.0659   24.5712 H   0  0  0  0  0  0  0  0  0  0  0  0
   31.0486  -23.4745   25.8018 H   0  0  0  0  0  0  0  0  0  0  0  0
   25.3363  -25.9372   23.2107 H   0  0  0  0  0  0  0  0  0  0  0  0
   20.0184  -23.9204   22.4334 H   0  0  0  0  0  0  0  0  0  0  0  0
   20.2897  -24.3559   20.0596 H   0  0  0  0  0  0  0  0  0  0  0  0
   22.4808  -24.7242   19.1309 H   0  0  0  0  0  0  0  0  0  0  0  0
   24.4567  -24.4254   20.4711 H   0  0  0  0  0  0  0  0  0  0  0  0
   25.4516  -20.7327   25.3194 H   0  0  0  0  0  0  0  0  0  0  0  0
   27.0261  -20.0398   25.6257 H   0  0  0  0  0  0  0  0  0  0  0  0
   26.2158  -19.7310   24.1088 H   0  0  0  0  0  0  0  0  0  0  0  0
  1  2  4  0
  2  3  4  0
  3  4  4  0
  4  5  4  0
  1  6  4  0
  5  6  4  0
  5  7  1  0
  4  8  1  0
  7 10  1  0
  7 11  2  0
  8 12  2  3
  9 13  1  0
 12 13  1  0
  9 14  4  0
 14 15  4  0
 15 16  4  0
 16 17  4  0
  9 17  4  0
 15 18  1  0
 18 19  4  0
 19 20  4  0
 20 21  4  0
 21 22  4  0
 22 23  4  0
 18 23  4  0
 19 24  1  0
 13 25  1  0
  1 26  1  0
  2 27  1  0
  3 28  1  0
  6 29  1  0
  8 30  1  0
 10 31  1  0
 16 32  1  0
 20 33  1  0
 21 34  1  0
 22 35  1  0
 23 36  1  0
 25 37  1  0
 25 38  1  0
 25 39  1  0
M  END
