6XG5_TOP_A_303
     RDKit          3D

 39 40  0  0  0  0  0  0  0  0999 V2000
   -2.5968    7.6268    9.7916 C   0  0  0  0  0  0  0  0  0  0  0  0
   -2.6952    7.3134   11.1078 N   0  0  0  0  0  0  0  0  0  0  0  0
   -1.6734    6.7037   11.7593 C   0  0  0  0  0  0  0  0  0  0  0  0
   -1.7987    6.3834   13.1426 N   0  0  0  0  0  0  0  0  0  0  0  0
   -0.5324    6.3968   11.0911 N   0  0  0  0  0  0  0  0  0  0  0  0
   -0.3777    6.6874    9.7718 C   0  0  0  0  0  0  0  0  0  0  0  0
    0.8531    6.3316    9.1336 N   0  0  0  0  0  0  0  0  0  0  0  0
   -1.4280    7.3279    9.0749 C   0  0  0  0  0  0  0  0  0  0  0  0
   -1.3584    7.6557    7.6000 C   0  0  0  0  0  0  0  0  0  0  0  0
   -1.7095    6.4546    6.7554 C   0  0  0  0  0  0  0  0  0  0  0  0
   -2.1082    5.2587    7.3652 C   0  0  0  0  0  0  0  0  0  0  0  0
   -2.4402    4.1264    6.5965 C   0  0  0  0  0  0  0  0  0  0  0  0
   -2.8283    2.9268    7.2144 O   0  0  0  0  0  0  0  0  0  0  0  0
   -3.1091    1.7086    6.5320 C   0  0  0  0  0  0  0  0  0  0  0  0
   -2.3788    4.2088    5.1812 C   0  0  0  0  0  0  0  0  0  0  0  0
   -2.6864    3.1360    4.3219 O   0  0  0  0  0  0  0  0  0  0  0  0
   -3.0807    1.8242    4.7086 C   0  0  0  0  0  0  0  0  0  0  0  0
   -1.9951    5.4143    4.5702 C   0  0  0  0  0  0  0  0  0  0  0  0
   -1.9507    5.4609    3.1669 O   0  0  0  0  0  0  0  0  0  0  0  0
   -1.4601    4.4128    2.3369 C   0  0  0  0  0  0  0  0  0  0  0  0
   -1.6687    6.5309    5.3590 C   0  0  0  0  0  0  0  0  0  0  0  0
   -3.4351    8.1061    9.3024 H   0  0  0  0  0  0  0  0  0  0  0  0
   -2.6742    6.6158   13.6620 H   0  0  0  0  0  0  0  0  0  0  0  0
   -1.0161    5.9132   13.6494 H   0  0  0  0  0  0  0  0  0  0  0  0
    1.5971    5.8450    9.6811 H   0  0  0  0  0  0  0  0  0  0  0  0
    1.0551    6.5505    8.1358 H   0  0  0  0  0  0  0  0  0  0  0  0
   -0.3514    8.0525    7.3504 H   0  0  0  0  0  0  0  0  0  0  0  0
   -2.0668    8.4762    7.3525 H   0  0  0  0  0  0  0  0  0  0  0  0
   -2.1561    5.2192    8.4444 H   0  0  0  0  0  0  0  0  0  0  0  0
   -3.3954    0.9361    7.2746 H   0  0  0  0  0  0  0  0  0  0  0  0
   -3.9541    1.8519    5.8258 H   0  0  0  0  0  0  0  0  0  0  0  0
   -2.2069    1.3590    5.9870 H   0  0  0  0  0  0  0  0  0  0  0  0
   -4.0344    1.8604    5.2758 H   0  0  0  0  0  0  0  0  0  0  0  0
   -2.2789    1.3417    5.3061 H   0  0  0  0  0  0  0  0  0  0  0  0
   -3.2448    1.2161    3.7955 H   0  0  0  0  0  0  0  0  0  0  0  0
   -0.3898    4.2181    2.5600 H   0  0  0  0  0  0  0  0  0  0  0  0
   -1.5508    4.7194    1.2748 H   0  0  0  0  0  0  0  0  0  0  0  0
   -2.0584    3.4903    2.4926 H   0  0  0  0  0  0  0  0  0  0  0  0
   -1.3846    7.4632    4.8906 H   0  0  0  0  0  0  0  0  0  0  0  0
  1  2  4  0
  2  3  4  0
  3  4  1  0
  3  5  4  0
  5  6  4  0
  6  7  1  0
  1  8  4  0
  6  8  4  0
  8  9  1  0
  9 10  1  0
 10 11  4  0
 11 12  4  0
 12 13  1  0
 13 14  1  0
 12 15  4  0
 15 16  1  0
 16 17  1  0
 15 18  4  0
 18 19  1  0
 19 20  1  0
 10 21  4  0
 18 21  4  0
  1 22  1  0
  4 23  1  0
  4 24  1  0
  7 25  1  0
  7 26  1  0
  9 27  1  0
  9 28  1  0
 11 29  1  0
 14 30  1  0
 14 31  1  0
 14 32  1  0
 17 33  1  0
 17 34  1  0
 17 35  1  0
 20 36  1  0
 20 37  1  0
 20 38  1  0
 21 39  1  0
M  END
