1UML_FR4_A_1001
     RDKit          3D

 33 36  0  0  0  0  0  0  0  0999 V2000
   51.6589   55.7294   21.5291 C   0  0  0  0  0  0  0  0  0  0  0  0
   52.4741   56.9376   21.6876 N   0  0  0  0  0  0  0  0  0  0  0  0
   53.7769   56.6421   21.5506 C   0  0  0  0  0  0  0  0  0  0  0  0
   53.9030   55.3305   21.3204 N   0  0  0  0  0  0  0  0  0  0  0  0
   52.5634   54.7599   21.3334 C   0  0  0  0  0  0  0  0  0  0  0  0
   52.2583   53.3245   21.1551 C   0  0  0  0  0  0  0  0  0  0  0  0
   51.8778   52.9553   20.0600 O   0  0  0  0  0  0  0  0  0  0  0  0
   52.3943   52.4944   22.1926 N   0  0  0  0  0  0  0  0  0  0  0  0
   51.9709   58.2843   21.9346 C   0  0  1  0  0  0  0  0  0  0  0  0
   52.8813   59.3437   21.2886 C   0  0  0  0  0  0  0  0  0  0  0  0
   54.1353   58.8320   20.9185 O   0  0  0  0  0  0  0  0  0  0  0  0
   50.4986   58.4509   21.5144 C   0  0  0  0  0  0  0  0  0  0  0  0
   49.7372   57.1411   21.2849 C   0  0  0  0  0  0  0  0  0  0  0  0
   49.0619   57.1773   19.9857 N   0  0  0  0  0  0  0  0  0  0  0  0
   48.2569   58.1541   19.4827 C   0  0  0  0  0  0  0  0  0  0  0  0
   47.8454   57.8260   18.1867 C   0  0  0  0  0  0  0  0  0  0  0  0
   48.4456   56.5490   17.8992 C   0  0  0  0  0  0  0  0  0  0  0  0
   49.2007   56.1721   19.0490 C   0  0  0  0  0  0  0  0  0  0  0  0
   48.3983   55.7296   16.8023 C   0  0  0  0  0  0  0  0  0  0  0  0
   49.1005   54.5243   16.8199 C   0  0  0  0  0  0  0  0  0  0  0  0
   49.8558   54.1518   17.9468 C   0  0  0  0  0  0  0  0  0  0  0  0
   49.8918   54.9941   19.0612 C   0  0  0  0  0  0  0  0  0  0  0  0
   50.5829   53.0045   18.0052 N   0  0  0  0  0  0  0  0  0  0  0  0
   50.5958   52.0134   17.0806 C   0  0  0  0  0  0  0  0  0  0  0  0
   50.1590   52.0850   15.9321 O   0  0  0  0  0  0  0  0  0  0  0  0
   51.2445   50.7558   17.6362 C   0  0  0  0  0  0  0  0  0  0  0  0
   50.7207   49.4935   16.9441 C   0  0  0  0  0  0  0  0  0  0  0  0
   48.2664   50.0851   17.1493 C   0  0  0  0  0  0  0  0  0  0  0  0
   49.2916   49.1568   17.3264 C   0  0  0  0  0  0  0  0  0  0  0  0
   49.0130   47.9197   17.9031 C   0  0  0  0  0  0  0  0  0  0  0  0
   47.7240   47.6197   18.3189 C   0  0  0  0  0  0  0  0  0  0  0  0
   46.7051   48.5608   18.1695 C   0  0  0  0  0  0  0  0  0  0  0  0
   46.9770   49.7872   17.5810 C   0  0  0  0  0  0  0  0  0  0  0  0
  1  2  1  0
  2  3  1  0
  3  4  2  0
  1  5  2  0
  4  5  1  0
  5  6  1  0
  6  7  2  0
  6  8  1  0
  2  9  1  0
  9 10  1  6
 10 11  1  0
  9 12  1  0
 12 13  1  0
 13 14  1  0
 14 15  1  0
 15 16  2  0
 16 17  1  0
 14 18  1  0
 17 18  2  0
 17 19  1  0
 19 20  2  0
 20 21  1  0
 18 22  1  0
 21 22  2  0
 21 23  1  0
 23 24  1  0
 24 25  2  0
 24 26  1  0
 26 27  1  0
 27 29  1  0
 28 29  2  0
 29 30  1  0
 30 31  2  0
 31 32  1  0
 28 33  1  0
 32 33  2  0
M  END
