7EN7_J79_A_301
     RDKit          3D

 24 24  0  0  0  0  0  0  0  0999 V2000
    2.7010  -13.8430   -9.8959 C   0  0  1  0  0  0  0  0  0  0  0  0
    3.8506  -13.0463   -9.3605 C   0  0  1  0  0  0  0  0  0  0  0  0
    4.2150  -13.7793   -7.1999 C   0  0  2  0  0  0  0  0  0  0  0  0
    4.1197  -13.4284   -5.7331 C   0  0  0  0  0  0  0  0  0  0  0  0
    5.6664  -13.7519   -7.5241 C   0  0  0  0  0  0  0  0  0  0  0  0
    4.0342  -11.7606  -10.0835 C   0  0  2  0  0  0  0  0  0  0  0  0
    5.8924  -10.3036   -9.1819 C   0  0  0  0  0  0  0  0  0  0  0  0
    7.3550   -9.9705   -9.2959 C   0  0  0  0  0  0  0  0  0  0  0  0
    3.5044  -11.7840  -11.4922 C   0  0  2  0  0  0  0  0  0  0  0  0
    1.7482  -13.1398  -10.7854 C   0  0  1  0  0  0  0  0  0  0  0  0
    0.4673  -12.6823  -10.0798 C   0  0  0  0  0  0  0  0  0  0  0  0
    5.4057  -11.2712  -10.1053 N   0  0  0  0  0  0  0  0  0  0  0  0
    3.2563  -14.9690  -10.5471 O   0  0  0  0  0  0  0  0  0  0  0  0
    3.5962  -12.8315   -8.0069 O   0  0  0  0  0  0  0  0  0  0  0  0
    6.3033  -12.7277   -7.1337 O   0  0  0  0  0  0  0  0  0  0  0  0
    6.3128  -14.7682   -8.2098 O   0  0  0  0  0  0  0  0  0  0  0  0
    5.2097   -9.7375   -8.3189 O   0  0  0  0  0  0  0  0  0  0  0  0
    3.6741  -10.4860  -11.9959 O   0  0  0  0  0  0  0  0  0  0  0  0
    2.2199  -12.1841  -11.6204 O   0  0  0  0  0  0  0  0  0  0  0  0
   -0.4457  -13.7143  -10.1980 O   0  0  0  0  0  0  0  0  0  0  0  0
   -1.4539  -12.0275  -12.1463 O   0  0  0  0  0  0  0  0  0  0  0  0
   -0.1062  -14.3458  -12.8582 O   0  0  0  0  0  0  0  0  0  0  0  0
   -2.4752  -14.3806  -11.6918 O   0  0  0  0  0  0  0  0  0  0  0  0
   -1.1497  -13.6242  -11.7288 P   0  0  1  0  0  5  0  0  0  0  0  0
  1  2  1  0
  4  3  1  6
  3  5  1  0
  2  6  1  0
  8  7  1  6
  6  9  1  0
  1 10  1  0
 10 11  1  0
  6 12  1  6
  7 12  1  0
  1 13  1  6
  3 14  1  6
  2 14  1  1
  5 15  2  0
  5 16  1  0
  7 17  2  0
  9 18  1  1
 10 19  1  1
  9 19  1  0
 11 20  1  6
 23 24  2  0
 24 21  1  6
 20 24  1  0
 22 24  1  0
M  END
$$$$
