7F5D_EUO_A_201
     RDKit          3D

 21 23  0  0  0  0  0  0  0  0999 V2000
    1.9668   -5.9438   32.9045 C   0  0  0  0  0  0  0  0  0  0  0  0
    3.0260   -7.1378   34.4956 C   0  0  0  0  0  0  0  0  0  0  0  0
    9.8369   -4.5800   31.8162 C   0  0  0  0  0  0  0  0  0  0  0  0
    7.7005   -5.3474   30.0660 C   0  0  0  0  0  0  0  0  0  0  0  0
    6.2779   -4.4178   28.4297 C   0  0  0  0  0  0  0  0  0  0  0  0
    5.1973   -4.6702   29.2544 C   0  0  0  0  0  0  0  0  0  0  0  0
    5.3681   -5.2625   30.4876 C   0  0  0  0  0  0  0  0  0  0  0  0
    4.2372   -5.5332   31.3648 C   0  0  0  0  0  0  0  0  0  0  0  0
    4.2994   -6.2416   32.5222 C   0  0  0  0  0  0  0  0  0  0  0  0
    3.1861   -6.4608   33.3069 C   0  0  0  0  0  0  0  0  0  0  0  0
    1.8580   -5.2222   31.7428 C   0  0  0  0  0  0  0  0  0  0  0  0
    2.9915   -5.0292   30.9940 C   0  0  0  0  0  0  0  0  0  0  0  0
    1.6829   -7.0211   34.8071 C   0  0  0  0  0  0  0  0  0  0  0  0
    7.3015   -3.4261   26.4251 C   0  0  0  0  0  0  0  0  0  0  0  0
    7.5134   -4.7680   28.8646 N   0  0  0  0  0  0  0  0  0  0  0  0
    6.6274   -5.5766   30.8387 N   0  0  0  0  0  0  0  0  0  0  0  0
    1.0589   -6.2997   33.8398 N   0  0  0  0  0  0  0  0  0  0  0  0
    6.0967   -3.7988   27.1413 N   0  0  0  0  0  0  0  0  0  0  0  0
   10.2565   -6.0035   29.5323 O   0  0  0  0  0  0  0  0  0  0  0  0
    9.1772   -7.1137   31.4297 O   0  0  0  0  0  0  0  0  0  0  0  0
    9.2867   -5.8105   30.6534 S   0  0  1  0  0  6  0  0  0  0  0  0
  5  6  2  0
  6  7  1  0
  7  8  1  0
  8  9  1  0
  2 10  1  0
  9 10  2  0
  1 10  1  0
  1 11  2  0
  8 12  2  0
 11 12  1  0
  2 13  2  0
  4 15  2  0
  5 15  1  0
  4 16  1  0
  7 16  2  0
 13 17  1  0
  1 17  1  0
  5 18  1  0
 14 18  1  6
  3 21  1  1
 20 21  2  0
 19 21  2  0
 21  4  1  6
M  END
$$$$
