7ORW_7WA_A_203
     RDKit          3D

 17 18  0  0  0  0  0  0  0  0999 V2000
    1.9530   95.4143   24.1258 C   0  0  0  0  0  0  0  0  0  0  0  0
    2.1833   92.9793   24.4462 N   0  0  0  0  0  0  0  0  0  0  0  0
    2.2582   94.1461   23.6232 C   0  0  0  0  0  0  0  0  0  0  0  0
    2.6446   94.0576   22.2686 C   0  0  0  0  0  0  0  0  0  0  0  0
    2.7146   95.2195   21.4657 C   0  0  0  0  0  0  0  0  0  0  0  0
    2.3999   96.4800   22.0063 C   0  0  0  0  0  0  0  0  0  0  0  0
    2.0226   96.5299   23.3459 C   0  0  0  0  0  0  0  0  0  0  0  0
    1.6812   97.5996   24.0737 N   0  0  0  0  0  0  0  0  0  0  0  0
    1.4089   97.0900   25.2988 C   0  0  0  0  0  0  0  0  0  0  0  0
    1.5651   95.7419   25.3725 N   0  0  0  0  0  0  0  0  0  0  0  0
    2.4143   92.0383   24.0567 H   0  0  0  0  0  0  0  0  0  0  0  0
    1.8972   93.0468   25.4482 H   0  0  0  0  0  0  0  0  0  0  0  0
    2.8903   93.0964   21.8353 H   0  0  0  0  0  0  0  0  0  0  0  0
    3.0121   95.1392   20.4284 H   0  0  0  0  0  0  0  0  0  0  0  0
    2.4495   97.3767   21.4024 H   0  0  0  0  0  0  0  0  0  0  0  0
    1.6343   98.5977   23.7706 H   0  0  0  0  0  0  0  0  0  0  0  0
    1.0970   97.6967   26.1387 H   0  0  0  0  0  0  0  0  0  0  0  0
  2  3  1  0
  1  3  2  0
  3  4  1  0
  4  5  2  0
  5  6  1  0
  6  7  2  0
  1  7  1  0
  7  8  1  0
  8  9  1  0
  1 10  1  0
  9 10  2  0
  2 11  1  0
  2 12  1  0
  4 13  1  0
  5 14  1  0
  6 15  1  0
  8 16  1  0
  9 17  1  0
M  END
