8C5D_GTB_A_502
     RDKit          3D

 30 30  0  0  0  0  0  0  0  0999 V2000
  -35.9151    3.7480   17.1353 N   0  0  0  0  0  0  0  0  0  0  0  0
  -36.0502    5.1817   16.7900 C   0  0  2  0  0  0  0  0  0  0  0  0
  -36.0546    5.3380   15.3269 C   0  0  0  0  0  0  0  0  0  0  0  0
  -35.6241    4.3604   14.6277 O   0  0  0  0  0  0  0  0  0  0  0  0
  -36.4824    6.4422   14.6282 O   0  0  0  0  0  0  0  0  0  0  0  0
  -34.8931    5.9370   17.3922 C   0  0  0  0  0  0  0  0  0  0  0  0
  -34.9629    7.3987   17.0518 C   0  0  0  0  0  0  0  0  0  0  0  0
  -33.8280    8.1474   17.7227 C   0  0  0  0  0  0  0  0  0  0  0  0
  -32.7606    7.5422   18.0070 O   0  0  0  0  0  0  0  0  0  0  0  0
  -34.0233    9.5159   18.0043 N   0  0  0  0  0  0  0  0  0  0  0  0
  -33.0404   10.2764   18.8101 C   0  0  2  0  0  0  0  0  0  0  0  0
  -33.6014   11.5146   19.3112 C   0  0  0  0  0  0  0  0  0  0  0  0
  -34.5726   12.1572   18.8518 O   0  0  0  0  0  0  0  0  0  0  0  0
  -31.7545   10.2948   18.0546 C   0  0  0  0  0  0  0  0  0  0  0  0
  -31.6244   11.3608   16.6667 S   0  0  0  0  0  0  0  0  0  0  0  0
  -32.9852   12.1032   20.4834 N   0  0  0  0  0  0  0  0  0  0  0  0
  -33.7103   13.1809   21.1265 C   0  0  0  0  0  0  0  0  0  0  0  0
  -34.3372   12.7928   22.3988 C   0  0  0  0  0  0  0  0  0  0  0  0
  -34.7090   13.7365   23.1691 O   0  0  0  0  0  0  0  0  0  0  0  0
  -34.5353   11.4828   22.7838 O   0  0  0  0  0  0  0  0  0  0  0  0
  -30.0036   11.6393   15.9855 C   0  0  0  0  0  0  0  0  0  0  0  0
  -29.2469   12.4813   16.9911 C   0  0  0  0  0  0  0  0  0  0  0  0
  -29.0639   13.8340   16.8018 C   0  0  0  0  0  0  0  0  0  0  0  0
  -28.3570   14.5407   17.7720 C   0  0  0  0  0  0  0  0  0  0  0  0
  -27.8798   13.8437   18.8688 C   0  0  0  0  0  0  0  0  0  0  0  0
  -27.1484   14.5706   19.8742 N   0  0  0  0  0  0  0  0  0  0  0  0
  -26.6415   13.9548   20.9933 O   0  0  0  0  0  0  0  0  0  0  0  0
  -26.9536   15.7885   19.7550 O   0  0  0  0  0  0  0  0  0  0  0  0
  -28.0749   12.4966   19.0348 C   0  0  0  0  0  0  0  0  0  0  0  0
  -28.7670   11.7951   18.0885 C   0  0  0  0  0  0  0  0  0  0  0  0
  2  1  1  6
  2  3  1  0
  3  4  2  0
  3  5  1  0
  2  6  1  0
  6  7  1  1
  7  8  1  6
  8  9  2  0
  8 10  1  0
 11 10  1  6
 11 12  1  0
 12 13  2  0
 11 14  1  0
 14 15  1  6
 12 16  1  0
 17 16  1  6
 17 18  1  0
 18 19  2  0
 18 20  1  0
 21 15  1  1
 21 22  1  0
 22 23  2  0
 23 24  1  0
 24 25  2  0
 25 26  1  0
 26 27  1  0
 26 28  2  0
 25 29  1  0
 22 30  1  0
 29 30  2  0
M  CHG  2  26   1  27  -1
M  END
$$$$
