1JJE_BYS_A_250
     RDKit          3D

 43 45  0  0  0  0  0  0  0  0999 V2000
   -0.7779    1.4016   -0.5789 C   0  0  1  0  0  0  0  0  0  0  0  0
   -1.4688    1.0685    0.7242 C   0  0  0  0  0  0  0  0  0  0  0  0
   -2.6490    1.4682    0.9172 O   0  0  0  0  0  0  0  0  0  0  0  0
   -0.8557    0.2863    1.6939 O   0  0  0  0  0  0  0  0  0  0  0  0
    0.7087    1.8490   -0.4360 C   0  0  0  0  0  0  0  0  0  0  0  0
    1.7192    0.8159    0.0136 C   0  0  0  0  0  0  0  0  0  0  0  0
    2.5384    0.1664   -0.9277 C   0  0  0  0  0  0  0  0  0  0  0  0
    3.5119   -0.7470   -0.5119 C   0  0  0  0  0  0  0  0  0  0  0  0
    3.7058   -0.9923    0.8489 C   0  0  0  0  0  0  0  0  0  0  0  0
    2.9416   -0.3075    1.7959 C   0  0  0  0  0  0  0  0  0  0  0  0
    1.9681    0.6069    1.3826 C   0  0  0  0  0  0  0  0  0  0  0  0
   -1.1432    0.4079   -1.7313 C   0  0  1  0  0  0  0  0  0  0  0  0
   -0.7853    1.0026   -3.0715 C   0  0  0  0  0  0  0  0  0  0  0  0
    0.3495    0.8053   -3.5839 O   0  0  0  0  0  0  0  0  0  0  0  0
   -1.7042    1.8156   -3.7284 O   0  0  0  0  0  0  0  0  0  0  0  0
   -0.6222   -1.0515   -1.6327 C   0  0  0  0  0  0  0  0  0  0  0  0
   -1.0755   -1.8040   -0.4076 C   0  0  0  0  0  0  0  0  0  0  0  0
   -2.4526   -2.0215   -0.1693 C   0  0  0  0  0  0  0  0  0  0  0  0
   -2.8151   -2.7313    0.9714 C   0  0  0  0  0  0  0  0  0  0  0  0
   -4.0826   -3.0501    1.4189 O   0  0  0  0  0  0  0  0  0  0  0  0
   -3.9482   -3.7897    2.6406 C   0  0  0  0  0  0  0  0  0  0  0  0
   -2.5348   -3.8809    2.8683 O   0  0  0  0  0  0  0  0  0  0  0  0
   -1.8933   -3.2272    1.8342 C   0  0  0  0  0  0  0  0  0  0  0  0
   -0.5278   -3.0620    1.6286 C   0  0  0  0  0  0  0  0  0  0  0  0
   -0.1174   -2.3489    0.4883 C   0  0  0  0  0  0  0  0  0  0  0  0
   -1.2751    2.3508   -0.8900 H   0  0  0  0  0  0  0  0  0  0  0  0
   -1.3378    0.0458    2.5516 H   0  0  0  0  0  0  0  0  0  0  0  0
    1.0439    2.2861   -1.4014 H   0  0  0  0  0  0  0  0  0  0  0  0
    0.7428    2.6993    0.2810 H   0  0  0  0  0  0  0  0  0  0  0  0
    2.4227    0.3629   -1.9852 H   0  0  0  0  0  0  0  0  0  0  0  0
    4.1218   -1.2582   -1.2454 H   0  0  0  0  0  0  0  0  0  0  0  0
    4.4613   -1.6976    1.1699 H   0  0  0  0  0  0  0  0  0  0  0  0
    3.1137   -0.4737    2.8515 H   0  0  0  0  0  0  0  0  0  0  0  0
    1.4265    1.1678    2.1329 H   0  0  0  0  0  0  0  0  0  0  0  0
   -2.2536    0.3363   -1.7365 H   0  0  0  0  0  0  0  0  0  0  0  0
   -1.4789    2.2388   -4.6207 H   0  0  0  0  0  0  0  0  0  0  0  0
    0.4761   -1.0832   -1.7224 H   0  0  0  0  0  0  0  0  0  0  0  0
   -1.0000   -1.6149   -2.5144 H   0  0  0  0  0  0  0  0  0  0  0  0
   -3.2121   -1.6499   -0.8445 H   0  0  0  0  0  0  0  0  0  0  0  0
   -4.3838   -4.8042    2.5242 H   0  0  0  0  0  0  0  0  0  0  0  0
   -4.4359   -3.2431    3.4748 H   0  0  0  0  0  0  0  0  0  0  0  0
    0.1946   -3.4703    2.3229 H   0  0  0  0  0  0  0  0  0  0  0  0
    0.9407   -2.2156    0.3076 H   0  0  0  0  0  0  0  0  0  0  0  0
  1  2  1  0
  2  3  2  0
  2  4  1  0
  1  5  1  0
  5  6  1  0
  6  7  2  0
  7  8  1  0
  8  9  2  0
  9 10  1  0
  6 11  1  0
 10 11  2  0
  1 12  1  0
 12 13  1  0
 13 14  2  0
 13 15  1  0
 12 16  1  0
 16 17  1  0
 17 18  2  0
 18 19  1  0
 19 20  1  0
 20 21  1  0
 21 22  1  0
 19 23  2  0
 22 23  1  0
 23 24  1  0
 17 25  1  0
 24 25  2  0
  1 26  1  6
  4 27  1  0
  5 28  1  0
  5 29  1  0
  7 30  1  0
  8 31  1  0
  9 32  1  0
 10 33  1  0
 11 34  1  0
 12 35  1  6
 15 36  1  0
 16 37  1  0
 16 38  1  0
 18 39  1  0
 21 40  1  0
 21 41  1  0
 24 42  1  0
 25 43  1  0
M  END
