6YT6_PKE_B_701
     RDKit          3D

 31 34  0  0  0  0  0  0  0  0999 V2000
   -0.4460    7.3500  -21.7930 C   0  0  0  0  0  0  0  0  0  0  0  0
    1.8960    5.2330  -19.1420 C   0  0  0  0  0  0  0  0  0  0  0  0
    2.9760    6.1990  -18.7200 C   0  0  0  0  0  0  0  0  0  0  0  0
    2.7140    7.3100  -17.9240 C   0  0  0  0  0  0  0  0  0  0  0  0
    3.7370    8.1760  -17.5770 C   0  0  0  0  0  0  0  0  0  0  0  0
    5.0110    7.9110  -18.0300 C   0  0  0  0  0  0  0  0  0  0  0  0
    4.3150    6.0380  -19.1190 C   0  0  0  0  0  0  0  0  0  0  0  0
    7.0180    3.9320  -19.0480 C   0  0  0  0  0  0  0  0  0  0  0  0
    0.9850    7.0530  -23.8850 C   0  0  0  0  0  0  0  0  0  0  0  0
    3.2630    6.2930  -24.1430 C   0  0  0  0  0  0  0  0  0  0  0  0
    1.7650    6.3390  -26.0450 C   0  0  0  0  0  0  0  0  0  0  0  0
    0.2920    6.5890  -20.9680 N   0  0  0  0  0  0  0  0  0  0  0  0
   -1.5940    7.9730  -21.4890 N   0  0  0  0  0  0  0  0  0  0  0  0
   -2.0290    7.7960  -20.2370 C   0  0  0  0  0  0  0  0  0  0  0  0
   -1.3650    7.0390  -19.2980 C   0  0  0  0  0  0  0  0  0  0  0  0
   -0.1820    6.4440  -19.7220 C   0  0  0  0  0  0  0  0  0  0  0  0
    0.5460    5.6850  -18.8600 N   0  0  0  0  0  0  0  0  0  0  0  0
   -0.0710    7.5330  -23.0890 N   0  0  0  0  0  0  0  0  0  0  0  0
    5.3240    6.8560  -18.7940 N   0  0  0  0  0  0  0  0  0  0  0  0
    4.6430    4.9110  -19.9550 N   0  0  0  0  0  0  0  0  0  0  0  0
    5.3070    3.6040  -19.2410 S   0  0  0  0  0  0  0  0  0  0  0  0
    5.0610    5.2210  -21.3250 C   0  0  0  0  0  0  0  0  0  0  0  0
    5.1560    2.5200  -20.1560 O   0  0  0  0  0  0  0  0  0  0  0  0
    4.7160    3.5020  -17.9480 O   0  0  0  0  0  0  0  0  0  0  0  0
    0.7490    6.8320  -25.2400 C   0  0  0  0  0  0  0  0  0  0  0  0
    2.2420    6.7850  -23.3450 C   0  0  0  0  0  0  0  0  0  0  0  0
    3.0100    6.0730  -25.4900 C   0  0  0  0  0  0  0  0  0  0  0  0
    1.8210    5.9990  -27.5030 C   0  0  0  0  0  0  0  0  0  0  0  0
    3.2280    5.4710  -27.6780 C   0  0  0  0  0  0  0  0  0  0  0  0
    3.8550    5.5620  -26.4770 N   0  0  0  0  0  0  0  0  0  0  0  0
    3.7210    5.0170  -28.7030 O   0  0  0  0  0  0  0  0  0  0  0  0
  2  3  1  0
  3  4  2  0
  4  5  1  0
  5  6  2  0
  3  7  1  0
  1 12  2  0
  1 13  1  0
 13 14  2  0
 14 15  1  0
 15 16  2  0
 12 16  1  0
 16 17  1  0
  2 17  1  0
  1 18  1  0
  9 18  1  0
  6 19  1  0
  7 19  2  0
  7 20  1  0
 20 21  1  0
  8 21  1  0
 20 22  1  0
 21 23  2  0
 21 24  2  0
  9 25  2  0
 11 25  1  0
  9 26  1  0
 10 26  2  0
 11 27  2  0
 10 27  1  0
 11 28  1  0
 28 29  1  0
 27 30  1  0
 29 30  1  0
 29 31  2  0
M  END
$$$$
6YT6_PKE_A_701
     RDKit          3D

 31 34  0  0  0  0  0  0  0  0999 V2000
   -1.7180   -3.8060   18.9160 C   0  0  0  0  0  0  0  0  0  0  0  0
   -0.0470   -6.5450   21.4990 C   0  0  0  0  0  0  0  0  0  0  0  0
   -0.8990   -7.7610   21.2380 C   0  0  0  0  0  0  0  0  0  0  0  0
   -0.7730   -8.5160   20.0770 C   0  0  0  0  0  0  0  0  0  0  0  0
   -1.5970   -9.6060   19.8620 C   0  0  0  0  0  0  0  0  0  0  0  0
   -2.5370   -9.9220   20.8160 C   0  0  0  0  0  0  0  0  0  0  0  0
   -1.8870   -8.1880   22.1450 C   0  0  0  0  0  0  0  0  0  0  0  0
   -2.0230   -9.3420   25.3430 C   0  0  0  0  0  0  0  0  0  0  0  0
   -3.6540   -3.0410   20.3850 C   0  0  0  0  0  0  0  0  0  0  0  0
   -4.5530   -3.9490   22.4370 C   0  0  0  0  0  0  0  0  0  0  0  0
   -5.1950   -1.7370   21.6870 C   0  0  0  0  0  0  0  0  0  0  0  0
   -1.1470   -4.6330   19.8080 N   0  0  0  0  0  0  0  0  0  0  0  0
   -1.2590   -3.5140   17.6910 N   0  0  0  0  0  0  0  0  0  0  0  0
   -0.1110   -4.1110   17.3510 C   0  0  0  0  0  0  0  0  0  0  0  0
    0.5750   -4.9730   18.1780 C   0  0  0  0  0  0  0  0  0  0  0  0
    0.0010   -5.2070   19.4230 C   0  0  0  0  0  0  0  0  0  0  0  0
    0.6080   -6.0400   20.3080 N   0  0  0  0  0  0  0  0  0  0  0  0
   -2.8540   -3.1310   19.2360 N   0  0  0  0  0  0  0  0  0  0  0  0
   -2.7000   -9.2350   21.9550 N   0  0  0  0  0  0  0  0  0  0  0  0
   -2.0560   -7.4570   23.3750 N   0  0  0  0  0  0  0  0  0  0  0  0
   -1.2020   -7.9440   24.6800 S   0  0  0  0  0  0  0  0  0  0  0  0
   -3.3880   -6.8920   23.6130 C   0  0  0  0  0  0  0  0  0  0  0  0
   -1.2740   -6.8850   25.6330 O   0  0  0  0  0  0  0  0  0  0  0  0
    0.0780   -8.3590   24.2060 O   0  0  0  0  0  0  0  0  0  0  0  0
   -4.3830   -1.8700   20.5720 C   0  0  0  0  0  0  0  0  0  0  0  0
   -3.7420   -4.0740   21.3180 C   0  0  0  0  0  0  0  0  0  0  0  0
   -5.2710   -2.7730   22.6090 C   0  0  0  0  0  0  0  0  0  0  0  0
   -6.0860   -0.6270   22.1570 C   0  0  0  0  0  0  0  0  0  0  0  0
   -6.6410   -1.1600   23.4590 C   0  0  0  0  0  0  0  0  0  0  0  0
   -6.1240   -2.4010   23.6510 N   0  0  0  0  0  0  0  0  0  0  0  0
   -7.4180   -0.5890   24.2170 O   0  0  0  0  0  0  0  0  0  0  0  0
  2  3  1  0
  3  4  2  0
  4  5  1  0
  5  6  2  0
  3  7  1  0
  1 12  2  0
  1 13  1  0
 13 14  2  0
 14 15  1  0
 15 16  2  0
 12 16  1  0
 16 17  1  0
  2 17  1  0
  1 18  1  0
  9 18  1  0
  6 19  1  0
  7 19  2  0
  7 20  1  0
 20 21  1  0
  8 21  1  0
 20 22  1  0
 21 23  2  0
 21 24  2  0
  9 25  2  0
 11 25  1  0
  9 26  1  0
 10 26  2  0
 11 27  2  0
 10 27  1  0
 11 28  1  0
 28 29  1  0
 27 30  1  0
 29 30  1  0
 29 31  2  0
M  END
$$$$
