1X8X_TYR_A_952
     RDKit          3D

 24 24  0  0  0  0  0  0  0  0999 V2000
   -2.3906    9.6807    3.6411 N   0  0  0  0  0  0  0  0  0  0  0  0
   -1.6957    8.8974    2.6172 C   0  0  1  0  0  0  0  0  0  0  0  0
   -0.6468    9.7483    1.9564 C   0  0  0  0  0  0  0  0  0  0  0  0
   -0.3398   10.8716    2.4394 O   0  0  0  0  0  0  0  0  0  0  0  0
   -1.0803    7.6181    3.2232 C   0  0  0  0  0  0  0  0  0  0  0  0
   -0.3240    7.9126    4.4945 C   0  0  0  0  0  0  0  0  0  0  0  0
   -0.4938    9.1403    5.1556 C   0  0  0  0  0  0  0  0  0  0  0  0
    0.5942    6.9792    5.0028 C   0  0  0  0  0  0  0  0  0  0  0  0
    0.2329    9.4225    6.3163 C   0  0  0  0  0  0  0  0  0  0  0  0
    1.3194    7.2635    6.1639 C   0  0  0  0  0  0  0  0  0  0  0  0
    1.1397    8.4865    6.8242 C   0  0  0  0  0  0  0  0  0  0  0  0
    1.8571    8.7812    7.9813 O   0  0  0  0  0  0  0  0  0  0  0  0
    0.0114    9.2787    0.8239 O   0  0  0  0  0  0  0  0  0  0  0  0
   -1.7506    9.8411    4.4537 H   0  0  0  0  0  0  0  0  0  0  0  0
   -3.2034    9.1238    3.9928 H   0  0  0  0  0  0  0  0  0  0  0  0
   -2.4417    8.6025    1.8452 H   0  0  0  0  0  0  0  0  0  0  0  0
   -1.8766    6.8646    3.4143 H   0  0  0  0  0  0  0  0  0  0  0  0
   -0.3815    7.1630    2.4877 H   0  0  0  0  0  0  0  0  0  0  0  0
   -1.1853    9.8794    4.7705 H   0  0  0  0  0  0  0  0  0  0  0  0
    0.7491    6.0336    4.4981 H   0  0  0  0  0  0  0  0  0  0  0  0
    0.0937   10.3706    6.8197 H   0  0  0  0  0  0  0  0  0  0  0  0
    2.0223    6.5349    6.5474 H   0  0  0  0  0  0  0  0  0  0  0  0
    2.5218    8.1246    8.3739 H   0  0  0  0  0  0  0  0  0  0  0  0
    0.7316    9.8316    0.3747 H   0  0  0  0  0  0  0  0  0  0  0  0
  2  1  1  0
  2  3  1  0
  3  4  2  0
  2  5  1  0
  5  6  1  0
  6  7  4  0
  6  8  4  0
  7  9  4  0
  8 10  4  0
  9 11  4  0
 10 11  4  0
 11 12  1  0
  3 13  1  0
  1 14  1  0
  1 15  1  0
  2 16  1  1
  5 17  1  0
  5 18  1  0
  7 19  1  0
  8 20  1  0
  9 21  1  0
 10 22  1  0
 12 23  1  0
 13 24  1  0
M  END
