7XG5_PLP_B_401
     RDKit          3D

 16 16  0  0  0  0  0  0  0  0999 V2000
  -40.4990  -29.7940   18.4390 N   0  0  0  0  0  0  0  0  0  0  0  0
  -39.4720  -30.6450   18.3730 C   0  0  0  0  0  0  0  0  0  0  0  0
  -39.6400  -32.0270   18.9330 C   0  0  0  0  0  0  0  0  0  0  0  0
  -38.2540  -30.2450   17.7910 C   0  0  0  0  0  0  0  0  0  0  0  0
  -37.2280  -31.1310   17.7320 O   0  0  0  0  0  0  0  0  0  0  0  0
  -38.1350  -28.9380   17.2850 C   0  0  0  0  0  0  0  0  0  0  0  0
  -36.8760  -28.4960   16.6860 C   0  0  0  0  0  0  0  0  0  0  0  0
  -35.8790  -29.1760   16.5990 O   0  0  0  0  0  0  0  0  0  0  0  0
  -39.2280  -28.0680   17.3790 C   0  0  0  0  0  0  0  0  0  0  0  0
  -40.3780  -28.5330   17.9570 C   0  0  0  0  0  0  0  0  0  0  0  0
  -39.1370  -26.6600   16.8510 C   0  0  0  0  0  0  0  0  0  0  0  0
  -38.3170  -25.8810   17.7800 O   0  0  0  0  0  0  0  0  0  0  0  0
  -37.4740  -24.5920   17.2780 P   0  0  0  0  0  0  0  0  0  0  0  0
  -36.3450  -25.1230   16.4080 O   0  0  0  0  0  0  0  0  0  0  0  0
  -37.0060  -23.9370   18.5370 O   0  0  0  0  0  0  0  0  0  0  0  0
  -38.4400  -23.7240   16.4230 O   0  0  0  0  0  0  0  0  0  0  0  0
  1  2  2  0
  2  3  1  0
  2  4  1  0
  4  5  1  0
  4  6  2  0
  6  7  1  0
  7  8  2  0
  6  9  1  0
  1 10  1  0
  9 10  2  0
  9 11  1  0
 11 12  1  0
 12 13  1  0
 13 14  2  0
 13 15  1  0
 13 16  1  0
M  END
$$$$
