6ZCY_QF8_A_701
     RDKit          3D

 33 37  0  0  0  0  0  0  0  0999 V2000
    4.7816    3.2514   12.6041 C   0  0  0  0  0  0  0  0  0  0  0  0
    3.3910    3.0974   12.5483 C   0  0  0  0  0  0  0  0  0  0  0  0
    3.0950    1.9961   13.2987 C   0  0  0  0  0  0  0  0  0  0  0  0
   -2.6962   -1.9708   13.4313 N   0  0  0  0  0  0  0  0  0  0  0  0
    3.2226   -1.4497   15.7656 C   0  0  0  0  0  0  0  0  0  0  0  0
    0.8495   -2.1897   15.4670 C   0  0  0  0  0  0  0  0  0  0  0  0
   -0.0789   -3.1814   15.7191 C   0  0  0  0  0  0  0  0  0  0  0  0
   -1.3142   -3.2207   15.0950 C   0  0  0  0  0  0  0  0  0  0  0  0
   -1.5895   -2.1995   14.1850 C   0  0  0  0  0  0  0  0  0  0  0  0
   -0.6662   -1.1961   13.9225 C   0  0  0  0  0  0  0  0  0  0  0  0
    0.5468   -1.1848   14.5545 C   0  0  0  0  0  0  0  0  0  0  0  0
   -1.2680   -0.3782   12.9958 C   0  0  0  0  0  0  0  0  0  0  0  0
   -3.9211   -2.7273   13.3506 C   0  0  0  0  0  0  0  0  0  0  0  0
   -0.6876    0.8358   12.4018 C   0  0  0  0  0  0  0  0  0  0  0  0
    0.2900    4.9165   11.2799 C   0  0  0  0  0  0  0  0  0  0  0  0
   -0.0689    6.2795   11.8033 C   0  0  0  0  0  0  0  0  0  0  0  0
    1.2207    5.3400   13.4017 C   0  0  0  0  0  0  0  0  0  0  0  0
    0.4664    1.2128   12.7109 O   0  0  0  0  0  0  0  0  0  0  0  0
   -1.4632    1.5957   11.4534 N   0  0  0  0  0  0  0  0  0  0  0  0
   -0.8194    2.7545   10.8259 C   0  0  0  0  0  0  0  0  0  0  0  0
   -2.4815   -0.8651   12.7197 N   0  0  0  0  0  0  0  0  0  0  0  0
    2.1042   -2.2211   16.1598 N   0  0  0  0  0  0  0  0  0  0  0  0
    4.4342   -1.8690   16.2251 N   0  0  0  0  0  0  0  0  0  0  0  0
    5.5637   -1.2152   15.9070 C   0  0  0  0  0  0  0  0  0  0  0  0
    5.4898   -0.0988   15.0998 C   0  0  0  0  0  0  0  0  0  0  0  0
    3.1812   -0.3695   14.9884 N   0  0  0  0  0  0  0  0  0  0  0  0
    4.2649    0.3328   14.6295 C   0  0  0  0  0  0  0  0  0  0  0  0
    4.2532    1.4807   13.8049 N   0  0  0  0  0  0  0  0  0  0  0  0
    5.2366    2.2484   13.3742 N   0  0  0  0  0  0  0  0  0  0  0  0
    5.5559    4.3369   11.9215 C   0  0  0  0  0  0  0  0  0  0  0  0
    2.4509    3.9052   11.8580 N   0  0  0  0  0  0  0  0  0  0  0  0
    1.1497    4.2509   12.3567 C   0  0  2  0  0  0  0  0  0  0  0  0
    1.0789    6.5670   12.6552 N   0  0  0  0  0  0  0  0  0  0  0  0
  1  2  1  0
  2  3  2  0
  6  7  2  0
  7  8  1  0
  4  9  1  0
  8  9  2  0
  9 10  1  0
 10 11  2  0
  6 11  1  0
 10 12  1  0
 13  4  1  1
 12 14  1  0
 15 16  1  6
 14 18  2  0
 14 19  1  0
 20 19  1  6
 12 21  2  0
  4 21  1  0
  6 22  1  0
  5 22  1  0
  5 23  2  0
 23 24  1  0
 24 25  2  0
  5 26  1  0
 26 27  2  0
 25 27  1  0
  3 28  1  0
 27 28  1  0
  1 29  2  0
 28 29  1  0
 30  1  1  6
  2 31  1  0
 15 32  1  0
 32 31  1  6
 17 32  1  0
 16 33  1  1
 17 33  1  6
M  END
$$$$
