6XBO_5MC_A_401
     RDKit          3D

 22 23  0  0  0  0  0  0  0  0999 V2000
   15.0670  -15.4643   11.6126 P   0  0  2  0  0  5  0  0  0  0  0  0
   15.3711  -15.1911   10.1493 O   0  0  0  0  0  0  0  0  0  0  0  0
   13.6910  -14.6119   12.1006 O   0  0  0  0  0  0  0  0  0  0  0  0
   16.3767  -14.9046   12.5382 O   0  0  0  0  0  0  0  0  0  0  0  0
   14.9011  -17.1133   11.9055 O   0  0  0  0  0  0  0  0  0  0  0  0
   16.0535  -17.7792   11.5017 C   0  0  0  0  0  0  0  0  0  0  0  0
   15.8032  -18.7238   10.3488 C   0  0  1  0  0  0  0  0  0  0  0  0
   15.1818  -17.9965    9.3075 O   0  0  0  0  0  0  0  0  0  0  0  0
   17.0823  -19.1211    9.6608 C   0  0  1  0  0  0  0  0  0  0  0  0
   17.7829  -20.0900   10.3702 O   0  0  0  0  0  0  0  0  0  0  0  0
   16.5599  -19.6191    8.3376 C   0  0  1  0  0  0  0  0  0  0  0  0
   16.3393  -20.9989    8.4935 O   0  0  0  0  0  0  0  0  0  0  0  0
   15.2717  -18.8394    8.1955 C   0  0  2  0  0  0  0  0  0  0  0  0
   15.1482  -18.1542    6.9504 N   0  0  0  0  0  0  0  0  0  0  0  0
   14.6860  -18.7544    5.8361 C   0  0  0  0  0  0  0  0  0  0  0  0
   14.3388  -19.9717    5.8585 O   0  0  0  0  0  0  0  0  0  0  0  0
   14.5656  -18.1163    4.6557 N   0  0  0  0  0  0  0  0  0  0  0  0
   14.9154  -16.8298    4.5660 C   0  0  0  0  0  0  0  0  0  0  0  0
   14.8175  -16.0835    3.3513 N   0  0  0  0  0  0  0  0  0  0  0  0
   15.3979  -16.1481    5.6673 C   0  0  0  0  0  0  0  0  0  0  0  0
   15.5005  -16.8451    6.8449 C   0  0  0  0  0  0  0  0  0  0  0  0
   15.7951  -14.7161    5.5977 C   0  0  0  0  0  0  0  0  0  0  0  0
  1  2  2  0
  1  3  1  1
  1  4  1  0
  1  5  1  0
  6  5  1  1
  7  6  1  0
  7  8  1  6
  7  9  1  0
  9 10  1  1
  9 11  1  0
 11 12  1  1
  8 13  1  0
 11 13  1  0
 13 14  1  6
 14 15  1  0
 15 16  2  0
 15 17  1  0
 17 18  2  0
 18 19  1  0
 18 20  1  0
 14 21  1  0
 20 21  2  0
 22 20  1  6
M  END
$$$$
