
     RDKit          3D

 11 11  0  0  0  0  0  0  0  0999 V2000
   33.1130  -28.4170   -7.9980 C   0  0  0  0  0  0  0  0  0  0  0  0
   33.3506  -27.3157   -7.1779 C   0  0  0  0  0  0  0  0  0  0  0  0
   33.4732  -26.0416   -7.7153 C   0  0  0  0  0  0  0  0  0  0  0  0
   33.3887  -25.8898   -9.1058 C   0  0  0  0  0  0  0  0  0  0  0  0
   33.1833  -27.0020   -9.9411 C   0  0  0  0  0  0  0  0  0  0  0  0
   33.0457  -28.2733   -9.3779 C   0  0  0  0  0  0  0  0  0  0  0  0
   32.9145  -29.6534   -7.4573 O   0  0  0  0  0  0  0  0  0  0  0  0
   33.4940  -27.4749   -5.8303 O   0  0  0  0  0  0  0  0  0  0  0  0
   33.5257  -24.5538   -9.6983 N   0  0  0  0  0  4  0  0  0  0  0  0
   33.0642  -24.3755  -10.8342 O   0  0  0  0  0  0  0  0  0  0  0  0
   34.0955  -23.6820   -9.0266 O   0  0  0  0  0  1  0  0  0  0  0  0
  1  2  4  0
  2  3  4  0
  3  4  4  0
  4  5  4  0
  1  6  4  0
  5  6  4  0
  1  7  1  0
  2  8  1  0
  4  9  1  0
  9 10  2  0
  9 11  1  0
M  CHG  2   9   1  11  -1
M  END
