7USH_82V_A_501
     RDKit          3D

 26 30  0  0  0  0  0  0  0  0999 V2000
   18.8084   -8.1819    9.7415 C   0  0  0  0  0  0  0  0  0  0  0  0
   15.9012   -5.4883    6.7765 C   0  0  0  0  0  0  0  0  0  0  0  0
   16.9727   -3.0759    6.4322 C   0  0  0  0  0  0  0  0  0  0  0  0
   18.8422   -3.5077    7.9972 C   0  0  0  0  0  0  0  0  0  0  0  0
   21.0522   -2.7031    9.3374 C   0  0  0  0  0  0  0  0  0  0  0  0
   23.4153   -2.0287    9.2523 C   0  0  0  0  0  0  0  0  0  0  0  0
   19.7332   -2.6996    7.3212 C   0  0  0  0  0  0  0  0  0  0  0  0
   14.1876   -6.8189    6.1484 O   0  0  0  0  0  0  0  0  0  0  0  0
   15.2154   -6.6661    6.8259 C   0  0  0  0  0  0  0  0  0  0  0  0
   15.7285   -7.6578    7.6617 C   0  0  0  0  0  0  0  0  0  0  0  0
   16.8761   -7.3271    8.3434 C   0  0  0  0  0  0  0  0  0  0  0  0
   17.4731   -8.2859    9.2231 N   0  0  0  0  0  0  0  0  0  0  0  0
   16.7072   -9.4683    9.6405 C   0  0  0  0  0  0  0  0  0  0  0  0
   17.5485  -10.2239   10.6364 C   0  0  0  0  0  0  0  0  0  0  0  0
   17.8606   -9.3066   11.6520 O   0  0  0  0  0  0  0  0  0  0  0  0
   18.8306   -8.4157   11.2624 C   0  0  0  0  0  0  0  0  0  0  0  0
   17.4859   -6.1782    8.2524 O   0  0  0  0  0  0  0  0  0  0  0  0
   17.0354   -5.1780    7.4582 C   0  0  0  0  0  0  0  0  0  0  0  0
   15.5103   -4.0274    5.8104 S   0  0  0  0  0  0  0  0  0  0  0  0
   17.6066   -3.9832    7.3173 C   0  0  0  0  0  0  0  0  0  0  0  0
   19.0320   -3.9124    9.3039 C   0  0  0  0  0  0  0  0  0  0  0  0
   20.1568   -3.5053    9.9918 C   0  0  0  0  0  0  0  0  0  0  0  0
   22.2072   -2.2489    9.9528 O   0  0  0  0  0  0  0  0  0  0  0  0
   23.1946   -1.6157    7.8285 C   0  0  0  0  0  0  0  0  0  0  0  0
   21.8325   -1.4896    7.4733 O   0  0  0  0  0  0  0  0  0  0  0  0
   20.8577   -2.2974    8.0212 C   0  0  0  0  0  0  0  0  0  0  0  0
  4  7  1  0
  2  9  1  0
  8  9  2  0
  9 10  1  0
 10 11  2  0
 11 12  1  0
  1 12  1  0
 12 13  1  0
 13 14  1  0
 14 15  1  0
  1 16  1  0
 15 16  1  0
 11 17  1  0
  2 18  2  0
 17 18  1  0
  3 19  1  0
  2 19  1  0
  3 20  2  0
  4 20  1  0
 18 20  1  0
  4 21  2  0
  5 22  2  0
 21 22  1  0
  5 23  1  0
  6 23  1  0
  6 24  1  0
 24 25  1  0
 25 26  1  0
  7 26  2  0
  5 26  1  0
M  END
$$$$
