7QTA_URI_A_407
     RDKit          3D

 29 30  0  0  0  0  0  0  0  0999 V2000
    0.9460   -1.4376    6.0155 N   0  0  0  0  0  0  0  0  0  0  0  0
    1.5409   -1.0830    7.2023 C   0  0  0  0  0  0  0  0  0  0  0  0
    2.7884   -1.5360    7.5086 N   0  0  0  0  0  0  0  0  0  0  0  0
    3.4780   -2.3298    6.6485 C   0  0  0  0  0  0  0  0  0  0  0  0
    2.9103   -2.6863    5.4304 C   0  0  0  0  0  0  0  0  0  0  0  0
    1.6345   -2.2194    5.1269 C   0  0  0  0  0  0  0  0  0  0  0  0
    0.9431   -0.3318    8.0216 O   0  0  0  0  0  0  0  0  0  0  0  0
    4.6309   -2.7388    6.9503 O   0  0  0  0  0  0  0  0  0  0  0  0
   -0.3941   -0.9266    5.6591 C   0  0  1  0  0  0  0  0  0  0  0  0
   -0.2880    0.2563    4.7034 C   0  0  1  0  0  0  0  0  0  0  0  0
   -1.5980    0.2012    3.9507 C   0  0  1  0  0  0  0  0  0  0  0  0
   -2.0148   -1.2746    4.0992 C   0  0  2  0  0  0  0  0  0  0  0  0
   -0.0630    1.4853    5.3548 O   0  0  0  0  0  0  0  0  0  0  0  0
   -2.5570    1.0393    4.5447 O   0  0  0  0  0  0  0  0  0  0  0  0
   -1.1587   -1.9237    5.0198 O   0  0  0  0  0  0  0  0  0  0  0  0
   -1.9826   -2.0206    2.7602 C   0  0  2  0  0  0  0  0  0  0  0  0
   -0.6851   -2.0181    2.2304 O   0  0  0  0  0  0  0  0  0  0  0  0
    3.2257   -1.2644    8.4190 H   0  0  0  0  0  0  0  0  0  0  0  0
    3.4475   -3.3099    4.7264 H   0  0  0  0  0  0  0  0  0  0  0  0
    1.2022   -2.4855    4.1705 H   0  0  0  0  0  0  0  0  0  0  0  0
   -0.9543   -0.6350    6.5769 H   0  0  0  0  0  0  0  0  0  0  0  0
    0.5421    0.0804    3.9830 H   0  0  0  0  0  0  0  0  0  0  0  0
   -1.4357    0.5056    2.8893 H   0  0  0  0  0  0  0  0  0  0  0  0
   -3.0548   -1.3374    4.4913 H   0  0  0  0  0  0  0  0  0  0  0  0
    0.7508    1.4028    5.9167 H   0  0  0  0  0  0  0  0  0  0  0  0
   -3.4085    0.8805    4.0594 H   0  0  0  0  0  0  0  0  0  0  0  0
   -2.6847   -1.5332    2.0467 H   0  0  0  0  0  0  0  0  0  0  0  0
   -2.3178   -3.0696    2.9215 H   0  0  0  0  0  0  0  0  0  0  0  0
   -0.0919   -1.6956    2.9574 H   0  0  0  0  0  0  0  0  0  0  0  0
  1  2  1  0
  2  3  1  0
  3  4  1  0
  4  5  1  0
  1  6  1  0
  5  6  2  0
  2  7  2  0
  4  8  2  0
  9  1  1  0
  9 10  1  0
 10 11  1  0
 11 12  1  0
 10 13  1  0
 11 14  1  0
  9 15  1  0
 12 15  1  0
 12 16  1  0
 16 17  1  0
  3 18  1  0
  5 19  1  0
  6 20  1  0
  9 21  1  1
 10 22  1  6
 11 23  1  6
 12 24  1  1
 13 25  1  0
 14 26  1  0
 16 27  1  6
 16 28  1  0
 17 29  1  0
M  END
