
     RDKit          3D

 28 31  0  0  0  0  0  0  0  0999 V2000
  -26.9225   10.2373   12.8467 C   0  0  0  0  0  0  0  0  0  0  0  0
  -25.8471   10.1205   13.7443 C   0  0  0  0  0  0  0  0  0  0  0  0
  -24.5775    9.8136   13.2361 C   0  0  0  0  0  0  0  0  0  0  0  0
  -24.4230    9.6409   11.8717 C   0  0  0  0  0  0  0  0  0  0  0  0
  -25.0387    9.8828   16.1379 C   0  0  0  0  0  0  0  0  0  0  0  0
  -24.7142    8.5336   16.3372 C   0  0  0  0  0  0  0  0  0  0  0  0
  -23.0748    9.1359   18.0022 C   0  0  0  0  0  0  0  0  0  0  0  0
  -23.3313   10.4953   17.7871 C   0  0  0  0  0  0  0  0  0  0  0  0
  -21.6921   11.0809   19.4792 C   0  0  0  0  0  0  0  0  0  0  0  0
  -28.2400   10.5803   13.2835 C   0  0  0  0  0  0  0  0  0  0  0  0
  -29.3214   10.8494   13.6102 N   0  0  0  0  0  0  0  0  0  0  0  0
  -25.4358    9.7442   10.9921 N   0  0  0  0  0  0  0  0  0  0  0  0
  -26.6565   10.0386   11.4986 C   0  0  0  0  0  0  0  0  0  0  0  0
  -27.8677   10.1231   10.2747 Cl  0  0  0  0  0  0  0  0  0  0  0  0
  -26.0031   10.2092   15.1496 N   0  0  0  0  0  0  0  0  0  0  0  0
  -24.3312   10.8489   16.8656 C   0  0  0  0  0  0  0  0  0  0  0  0
  -22.5555   11.5109   18.5442 C   0  0  0  0  0  0  0  0  0  0  0  0
  -22.7400   12.8555   18.2057 N   0  0  0  0  0  0  0  0  0  0  0  0
  -22.7343   13.9176   19.2405 C   0  0  0  0  0  0  0  0  0  0  0  0
  -21.8702   15.1322   18.8373 C   0  0  0  0  0  0  0  0  0  0  0  0
  -22.2097   15.7497   17.5385 N   0  0  0  0  0  0  0  0  0  0  0  0
  -23.1118   16.8879   17.6906 C   0  0  0  0  0  0  0  0  0  0  0  0
  -22.7794   14.7578   16.5989 C   0  0  0  0  0  0  0  0  0  0  0  0
  -22.3011   13.3157   16.8605 C   0  0  0  0  0  0  0  0  0  0  0  0
  -21.4606    9.6454   19.7479 C   0  0  0  0  0  0  0  0  0  0  0  0
  -20.6791    9.2866   20.6226 O   0  0  0  0  0  0  0  0  0  0  0  0
  -22.1420    8.7531   18.9709 N   0  0  0  0  0  0  0  0  0  0  0  0
  -23.7508    8.1566   17.2766 C   0  0  0  0  0  0  0  0  0  0  0  0
  1  2  4  0
  2  3  4  0
  3  4  4  0
  5  6  4  0
  7  8  4  0
  1 10  1  0
 10 11  3  0
  4 12  4  0
 12 13  4  0
  1 13  4  0
 13 14  1  0
  2 15  1  0
  5 15  1  0
  5 16  4  0
  8 16  4  0
  8 17  4  0
  9 17  4  0
 17 18  1  0
 18 19  1  0
 19 20  1  0
 20 21  1  0
 21 22  1  0
 21 23  1  0
 18 24  1  0
 23 24  1  0
  9 25  4  0
 25 26  2  0
  7 27  4  0
 25 27  4  0
  6 28  4  0
  7 28  4  0
M  END
