7FRX_O88_E_605
     RDKit          3D

 30 32  0  0  0  0  0  0  0  0999 V2000
   47.0050  -35.8435   43.2538 C   0  0  0  0  0  0  0  0  0  0  0  0
   49.2801  -32.7688   50.8458 O   0  0  0  0  0  0  0  0  0  0  0  0
   46.0176  -36.7776   43.1559 C   0  0  0  0  0  0  0  0  0  0  0  0
   50.0482  -32.8789   46.7147 C   0  0  0  0  0  0  0  0  0  0  0  0
   49.9229  -32.6648   48.0773 C   0  0  0  0  0  0  0  0  0  0  0  0
   51.3567  -30.7863   50.7241 C   0  0  0  0  0  0  0  0  0  0  0  0
   52.3376  -29.8763   51.0655 C   0  0  0  0  0  0  0  0  0  0  0  0
   53.6218  -30.2493   51.3666 O   0  0  0  0  0  0  0  0  0  0  0  0
   49.7492  -28.9886   50.6028 C   0  0  0  0  0  0  0  0  0  0  0  0
   52.0503  -28.4797   51.1725 C   0  0  0  0  0  0  0  0  0  0  0  0
   50.7241  -28.0231   50.9204 C   0  0  0  0  0  0  0  0  0  0  0  0
   49.0223  -31.7515   48.5651 C   0  0  0  0  0  0  0  0  0  0  0  0
   50.0349  -30.3766   50.5064 C   0  0  0  0  0  0  0  0  0  0  0  0
   48.2398  -31.0496   47.6492 C   0  0  0  0  0  0  0  0  0  0  0  0
   48.3517  -31.2547   46.2885 C   0  0  0  0  0  0  0  0  0  0  0  0
   52.9691  -27.5558   51.5333 O   0  0  0  0  0  0  0  0  0  0  0  0
   49.2739  -32.1910   45.8238 C   0  0  0  0  0  0  0  0  0  0  0  0
   46.8839  -35.5523   40.8518 C   0  0  0  0  0  0  0  0  0  0  0  0
   48.3412  -32.9450   41.4598 O   0  0  0  0  0  0  0  0  0  0  0  0
   45.8452  -36.4777   40.7448 C   0  0  0  0  0  0  0  0  0  0  0  0
   47.4790  -35.2105   42.1128 C   0  0  0  0  0  0  0  0  0  0  0  0
   49.4928  -32.6124   44.3880 C   0  0  0  0  0  0  0  0  0  0  0  0
   49.9681  -34.6765   42.1219 O   0  0  0  0  0  0  0  0  0  0  0  0
   48.6942  -34.0717   42.2400 S   0  0  1  0  0  0  0  0  0  0  0  0
   45.7012  -37.5148   44.2401 O   0  0  0  0  0  0  0  0  0  0  0  0
   45.4007  -37.1093   41.9187 C   0  0  0  0  0  0  0  0  0  0  0  0
   44.4141  -38.0213   41.7756 O   0  0  0  0  0  0  0  0  0  0  0  0
   48.6285  -33.6438   43.8296 N   0  0  0  0  0  0  0  0  0  0  0  0
   48.8706  -31.5624   50.1938 S   0  0  2  0  0  0  0  0  0  0  0  0
   47.5913  -31.0579   50.4699 O   0  0  0  0  0  0  0  0  0  0  0  0
  1  3  2  0
  4  5  2  0
  6  7  2  0
  7  8  1  0
  7 10  1  0
  9 11  1  0
 10 11  2  0
  5 12  1  0
  9 13  2  0
  6 13  1  0
 12 14  2  0
 14 15  1  0
 10 16  1  0
 15 17  2  0
  4 17  1  0
 18 20  1  0
 18 21  2  0
  1 21  1  0
 17 22  1  0
 21 24  1  0
 19 24  2  0
 23 24  2  0
  3 25  1  0
 20 26  2  0
  3 26  1  0
 26 27  1  0
 24 28  1  1
 22 28  1  0
 29 12  1  6
 13 29  1  0
  2 29  2  0
 29 30  2  0
M  END
