
     RDKit          3D

 30 32  0  0  0  0  0  0  0  0999 V2000
   78.2094  -44.1120   64.9103 C   0  0  0  0  0  0  0  0  0  0  0  0
   86.6357  -39.7450   66.1487 O   0  0  0  0  0  0  0  0  0  0  0  0
   77.4770  -44.1147   63.7314 C   0  0  0  0  0  0  0  0  0  0  0  0
   83.3652  -42.5312   66.0910 C   0  0  0  0  0  0  0  0  0  0  0  0
   84.4361  -41.6369   66.0546 C   0  0  0  0  0  0  0  0  0  0  0  0
   88.7775  -41.5452   67.0381 C   0  0  0  0  0  0  0  0  0  0  0  0
   89.8860  -42.2770   67.4538 C   0  0  0  0  0  0  0  0  0  0  0  0
   90.3560  -42.1506   68.7307 O   0  0  0  0  0  0  0  0  0  0  0  0
   88.9669  -42.5628   64.8318 C   0  0  0  0  0  0  0  0  0  0  0  0
   90.5308  -43.1487   66.5714 C   0  0  0  0  0  0  0  0  0  0  0  0
   90.0779  -43.2913   65.2600 C   0  0  0  0  0  0  0  0  0  0  0  0
   85.5255  -41.9066   65.2242 C   0  0  0  0  0  0  0  0  0  0  0  0
   88.3180  -41.7040   65.7272 C   0  0  0  0  0  0  0  0  0  0  0  0
   85.5622  -43.0661   64.4448 C   0  0  0  0  0  0  0  0  0  0  0  0
   84.4881  -43.9568   64.4861 C   0  0  0  0  0  0  0  0  0  0  0  0
   91.6159  -43.8558   67.0066 O   0  0  0  0  0  0  0  0  0  0  0  0
   83.3840  -43.7009   65.3132 C   0  0  0  0  0  0  0  0  0  0  0  0
   79.1047  -46.3043   64.3143 C   0  0  0  0  0  0  0  0  0  0  0  0
   80.5483  -46.5413   66.8386 O   0  0  0  0  0  0  0  0  0  0  0  0
   78.3578  -46.2926   63.1358 C   0  0  0  0  0  0  0  0  0  0  0  0
   79.0150  -45.2210   65.1992 C   0  0  0  0  0  0  0  0  0  0  0  0
   82.2127  -44.6531   65.3533 C   0  0  0  0  0  0  0  0  0  0  0  0
   79.1812  -44.6213   67.7549 O   0  0  0  0  0  0  0  0  0  0  0  0
   79.9605  -45.2275   66.7001 S   0  0  0  0  0  6  0  0  0  0  0  0
   76.6677  -43.0698   63.3812 O   0  0  0  0  0  0  0  0  0  0  0  0
   77.5482  -45.1992   62.8573 C   0  0  0  0  0  0  0  0  0  0  0  0
   76.8187  -45.1923   61.7035 O   0  0  0  0  0  0  0  0  0  0  0  0
   81.2140  -44.1919   66.3110 N   0  0  0  0  0  0  0  0  0  0  0  0
   86.9027  -40.7831   65.1695 S   0  0  0  0  0  6  0  0  0  0  0  0
   87.1489  -40.4421   63.7803 O   0  0  0  0  0  0  0  0  0  0  0  0
  1  3  4  0
  4  5  4  0
  6  7  4  0
  7  8  1  0
  7 10  4  0
  9 11  4  0
 10 11  4  0
  5 12  4  0
  9 13  4  0
  6 13  4  0
 12 14  4  0
 14 15  4  0
 10 16  1  0
 15 17  4  0
  4 17  4  0
 18 20  4  0
 18 21  4  0
  1 21  4  0
 17 22  1  0
 21 24  1  0
 19 24  2  0
 23 24  2  0
  3 25  1  0
 20 26  4  0
  3 26  4  0
 26 27  1  0
 24 28  1  0
 22 28  1  0
 12 29  1  0
 13 29  1  0
  2 29  2  0
 29 30  2  0
M  END
