1Z95_198_A_501
     RDKit          3D

 43 44  0  0  0  0  0  0  0  0999 V2000
   31.9155    0.6244    5.9632 C   0  0  0  0  0  0  0  0  0  0  0  0
   32.5597    1.8029    6.3532 C   0  0  0  0  0  0  0  0  0  0  0  0
   31.8124    2.9536    6.6224 C   0  0  0  0  0  0  0  0  0  0  0  0
   32.4379    4.0952    7.0015 F   0  0  0  0  0  0  0  0  0  0  0  0
   30.4193    2.9253    6.5047 C   0  0  0  0  0  0  0  0  0  0  0  0
   29.7728    1.7479    6.1149 C   0  0  0  0  0  0  0  0  0  0  0  0
   30.5192    0.5938    5.8350 C   0  0  0  0  0  0  0  0  0  0  0  0
   29.7070   -0.8957    5.3652 S   0  0  1  0  0  6  0  0  0  0  0  0
   29.1472   -0.7346    3.9793 O   0  0  0  0  0  0  0  0  0  0  0  0
   30.7072   -2.0170    5.3587 O   0  0  0  0  0  0  0  0  0  0  0  0
   28.3891   -1.2063    6.5446 C   0  0  1  0  0  0  0  0  0  0  0  0
   26.9438   -1.0028    6.0050 C   0  0  1  0  0  0  0  0  0  0  0  0
   26.8737   -1.4215    4.6602 O   0  0  0  0  0  0  0  0  0  0  0  0
   25.9006   -1.7429    6.8723 C   0  0  2  0  0  0  0  0  0  0  0  0
   26.5996    0.4740    6.0515 C   0  0  0  0  0  0  0  0  0  0  0  0
   26.6898    1.1053    7.1414 O   0  0  0  0  0  0  0  0  0  0  0  0
   26.0548    1.1266    4.8915 N   0  0  0  0  0  0  0  0  0  0  0  0
   26.2565    2.5175    4.5869 C   0  0  0  0  0  0  0  0  0  0  0  0
   27.3753    3.2180    5.0710 C   0  0  0  0  0  0  0  0  0  0  0  0
   25.3514    3.1721    3.7440 C   0  0  0  0  0  0  0  0  0  0  0  0
   25.5343    4.5153    3.4160 C   0  0  0  0  0  0  0  0  0  0  0  0
   26.6336    5.2245    3.9148 C   0  0  0  0  0  0  0  0  0  0  0  0
   26.7805    6.6126    3.5445 C   0  0  0  0  0  0  0  0  0  0  0  0
   26.8978    7.7249    3.2475 N   0  0  0  0  0  0  0  0  0  0  0  0
   27.5736    4.5767    4.7518 C   0  0  0  0  0  0  0  0  0  0  0  0
   28.7817    5.3214    5.2858 C   0  0  2  0  0  0  0  0  0  0  0  0
   29.5645    4.5210    6.1003 F   0  0  0  0  0  0  0  0  0  0  0  0
   28.3645    6.4137    6.0250 F   0  0  0  0  0  0  0  0  0  0  0  0
   29.5597    5.7593    4.2293 F   0  0  0  0  0  0  0  0  0  0  0  0
   32.5041   -0.2624    5.7654 H   0  0  0  0  0  0  0  0  0  0  0  0
   33.6377    1.8223    6.4488 H   0  0  0  0  0  0  0  0  0  0  0  0
   29.8395    3.8140    6.7179 H   0  0  0  0  0  0  0  0  0  0  0  0
   28.6933    1.7364    6.0355 H   0  0  0  0  0  0  0  0  0  0  0  0
   28.5092   -2.2432    6.9269 H   0  0  0  0  0  0  0  0  0  0  0  0
   28.5571   -0.5180    7.4017 H   0  0  0  0  0  0  0  0  0  0  0  0
   26.9664   -2.4088    4.6262 H   0  0  0  0  0  0  0  0  0  0  0  0
   25.8758   -1.3221    7.9008 H   0  0  0  0  0  0  0  0  0  0  0  0
   26.1195   -2.8263    6.9408 H   0  0  0  0  0  0  0  0  0  0  0  0
   24.8879   -1.6397    6.4258 H   0  0  0  0  0  0  0  0  0  0  0  0
   25.4023    0.5819    4.2831 H   0  0  0  0  0  0  0  0  0  0  0  0
   28.1023    2.6933    5.6755 H   0  0  0  0  0  0  0  0  0  0  0  0
   24.4950    2.6410    3.3475 H   0  0  0  0  0  0  0  0  0  0  0  0
   24.8150    5.0029    2.7686 H   0  0  0  0  0  0  0  0  0  0  0  0
  1  2  2  0
  2  3  1  0
  3  4  1  0
  3  5  2  0
  5  6  1  0
  1  7  1  0
  6  7  2  0
  8  7  1  1
  8  9  2  0
  8 10  2  0
  8 11  1  0
 11 12  1  0
 12 13  1  6
 12 14  1  0
 12 15  1  0
 15 16  2  0
 15 17  1  0
 17 18  1  0
 18 19  2  0
 18 20  1  0
 20 21  2  0
 21 22  1  0
 22 23  1  0
 23 24  3  0
 19 25  1  0
 22 25  2  0
 25 26  1  0
 26 27  1  1
 26 28  1  0
 26 29  1  0
  1 30  1  0
  2 31  1  0
  5 32  1  0
  6 33  1  0
 11 34  1  1
 11 35  1  0
 13 36  1  0
 14 37  1  1
 14 38  1  0
 14 39  1  0
 17 40  1  0
 19 41  1  0
 20 42  1  0
 21 43  1  0
M  END
