6YR2_T1C_BBB_1001
     RDKit          3D

 42 45  0  0  0  0  0  0  0  0999 V2000
   46.3356    8.1049   11.1166 C   0  0  0  0  0  0  0  0  0  0  0  0
   45.3460    8.2596    9.9928 C   0  0  1  0  0  0  0  0  0  0  0  0
   46.0246    8.4471    8.6511 C   0  0  0  0  0  0  0  0  0  0  0  0
   44.5046    7.0038    9.9007 C   0  0  0  0  0  0  0  0  0  0  0  0
   44.4425    9.3545   10.2868 N   0  0  0  0  0  0  0  0  0  0  0  0
   45.1718   10.6255   10.3628 C   0  0  0  0  0  0  0  0  0  0  0  0
   44.1713   11.6607   10.7327 C   0  0  0  0  0  0  0  0  0  0  0  0
   44.3820   12.8531   10.3449 O   0  0  0  0  0  0  0  0  0  0  0  0
   43.0054   11.3942   11.4873 N   0  0  0  0  0  0  0  0  0  0  0  0
   42.0327   12.4455   11.6335 C   0  0  0  0  0  0  0  0  0  0  0  0
   41.9686   13.2155   12.7727 C   0  0  0  0  0  0  0  0  0  0  0  0
   41.0406   14.2377   12.9452 C   0  0  0  0  0  0  0  0  0  0  0  0
   41.0360   14.9997   14.1686 N   0  0  1  0  0  0  0  0  0  0  0  0
   40.0977   14.4989   15.1370 C   0  0  0  0  0  0  0  0  0  0  0  0
   42.3591   15.2379   14.6698 C   0  0  0  0  0  0  0  0  0  0  0  0
   40.1398   14.4934   11.9254 C   0  0  0  0  0  0  0  0  0  0  0  0
   39.1414   15.5526   12.0289 C   0  0  0  0  0  0  0  0  0  0  0  0
   37.9055   15.3503   11.1791 C   0  0  1  0  0  0  0  0  0  0  0  0
   37.1698   16.6645   11.2166 C   0  0  0  0  0  0  0  0  0  0  0  0
   36.1900   16.8598   10.0878 C   0  0  1  0  0  0  0  0  0  0  0  0
   35.5601   18.2113   10.2591 C   0  0  2  0  0  0  0  0  0  0  0  0
   34.1447   18.0576   10.6041 N   0  0  1  0  0  0  0  0  0  0  0  0
   34.0038   17.7107   12.0042 C   0  0  0  0  0  0  0  0  0  0  0  0
   33.3366   19.1675   10.2033 C   0  0  0  0  0  0  0  0  0  0  0  0
   35.7467   19.1559    9.1603 C   0  0  0  0  0  0  0  0  0  0  0  0
   34.9923   20.3343    9.1868 O   0  0  0  0  0  0  0  0  0  0  0  0
   36.5608   19.0139    8.1331 C   0  0  0  0  0  0  0  0  0  0  0  0
   36.6789   20.0212    7.0772 C   0  0  0  0  0  0  0  0  0  0  0  0
   37.4959   19.8970    6.1513 O   0  0  0  0  0  0  0  0  0  0  0  0
   35.8450   21.1650    7.1081 N   0  0  0  0  0  0  0  0  0  0  0  0
   37.3544   17.7922    8.0786 C   0  0  0  0  0  0  0  0  0  0  0  0
   38.4629   17.7818    7.4992 O   0  0  0  0  0  0  0  0  0  0  0  0
   36.7618   16.5944    8.7451 C   0  0  2  0  0  0  0  0  0  0  0  0
   35.7143   16.1616    7.8998 O   0  0  0  0  0  0  0  0  0  0  0  0
   37.7708   15.5305    8.7151 C   0  0  0  0  0  0  0  0  0  0  0  0
   38.2048   15.0922    7.4548 O   0  0  0  0  0  0  0  0  0  0  0  0
   38.2882   14.9679    9.7967 C   0  0  0  0  0  0  0  0  0  0  0  0
   39.2827   13.9126    9.6522 C   0  0  0  0  0  0  0  0  0  0  0  0
   39.3400   13.2116    8.6131 O   0  0  0  0  0  0  0  0  0  0  0  0
   40.2123   13.7137   10.7848 C   0  0  0  0  0  0  0  0  0  0  0  0
   41.1350   12.7017   10.6199 C   0  0  0  0  0  0  0  0  0  0  0  0
   41.1933   11.9298    9.4682 O   0  0  0  0  0  0  0  0  0  0  0  0
  2  1  1  1
  2  3  1  0
  2  4  1  0
  2  5  1  0
  5  6  1  0
  6  7  1  0
  7  8  2  0
  7  9  1  0
  9 10  1  0
 10 11  2  0
 11 12  1  0
 12 13  1  0
 13 14  1  1
 13 15  1  0
 12 16  2  0
 16 17  1  0
 18 17  1  1
 18 19  1  0
 20 19  1  1
 20 21  1  0
 21 22  1  0
 22 23  1  1
 22 24  1  0
 21 25  1  6
 25 26  1  0
 25 27  2  0
 27 28  1  0
 28 29  2  0
 28 30  1  0
 27 31  1  0
 31 32  2  0
 20 33  1  0
 31 33  1  0
 33 34  1  6
 33 35  1  0
 35 36  1  0
 18 37  1  0
 35 37  2  0
 37 38  1  0
 38 39  2  0
 16 40  1  0
 38 40  1  0
 10 41  1  0
 40 41  2  0
 41 42  1  0
M  CHG  2  13   1  22   1
M  END
$$$$
