
     RDKit          3D

 32 34  0  0  0  0  0  0  0  0999 V2000
   24.0169  -41.6629    5.3885 N   0  0  0  0  0  0  0  0  0  0  0  0
   22.7136  -44.6020    5.9817 C   0  0  0  0  0  0  0  0  0  0  0  0
   23.6824  -44.0519    5.1344 C   0  0  0  0  0  0  0  0  0  0  0  0
   23.8724  -44.5895    3.8554 C   0  0  0  0  0  0  0  0  0  0  0  0
   24.5551  -42.9254    5.5650 C   0  0  0  0  0  0  0  0  0  0  0  0
   24.4711  -40.4541    5.9600 C   0  0  0  0  0  0  0  0  0  0  0  0
   24.2439  -38.4942    7.3830 C   0  0  0  0  0  0  0  0  0  0  0  0
   25.7584  -40.0296    5.6124 C   0  0  0  0  0  0  0  0  0  0  0  0
   26.1420  -36.5595    4.0141 C   0  0  0  0  0  0  0  0  0  0  0  0
   25.7806  -34.5430    2.7176 C   0  0  0  0  0  0  0  0  0  0  0  0
   23.9981  -33.0759    2.1247 C   0  0  0  0  0  0  0  0  0  0  0  0
   23.0762  -45.6477    3.4298 C   0  0  0  0  0  0  0  0  0  0  0  0
   22.1000  -46.1891    4.2546 C   0  0  0  0  0  0  0  0  0  0  0  0
   21.9327  -45.6616    5.5274 C   0  0  0  0  0  0  0  0  0  0  0  0
   23.2534  -46.1524    2.2025 F   0  0  0  0  0  0  0  0  0  0  0  0
   21.0048  -46.1831    6.3400 F   0  0  0  0  0  0  0  0  0  0  0  0
   25.6630  -43.1993    6.0085 O   0  0  0  0  0  0  0  0  0  0  0  0
   23.7169  -39.6714    6.8387 C   0  0  0  0  0  0  0  0  0  0  0  0
   25.5282  -38.0785    7.0449 C   0  0  0  0  0  0  0  0  0  0  0  0
   26.2720  -38.8390    6.1423 C   0  0  0  0  0  0  0  0  0  0  0  0
   27.9153  -38.3250    5.6976 S   0  0  1  0  0  6  0  0  0  0  0  0
   27.8201  -36.6408    5.7658 N   0  0  0  0  0  0  0  0  0  0  0  0
   28.8277  -38.8050    6.7119 O   0  0  0  0  0  0  0  0  0  0  0  0
   28.1049  -38.6545    4.2998 O   0  0  0  0  0  0  0  0  0  0  0  0
   27.1617  -35.9305    4.7270 C   0  0  0  0  0  0  0  0  0  0  0  0
   25.4510  -35.8669    3.0123 C   0  0  0  0  0  0  0  0  0  0  0  0
   26.8094  -33.9238    3.4346 C   0  0  0  0  0  0  0  0  0  0  0  0
   27.4980  -34.6119    4.4363 C   0  0  0  0  0  0  0  0  0  0  0  0
   25.1947  -33.7497    1.7741 O   0  0  0  0  0  0  0  0  0  0  0  0
   23.4929  -32.4016    1.0697 F   0  0  0  0  0  0  0  0  0  0  0  0
   24.2042  -32.2200    3.1487 F   0  0  0  0  0  0  0  0  0  0  0  0
   23.0837  -33.9895    2.5175 F   0  0  0  0  0  0  0  0  0  0  0  0
  2  3  4  0
  3  4  4  0
  3  5  1  0
  1  5  1  0
  1  6  1  0
  6  8  4  0
  4 12  4  0
 12 13  4  0
 13 14  4  0
  2 14  4  0
 12 15  1  0
 14 16  1  0
  5 17  2  0
  6 18  4  0
  7 18  4  0
  7 19  4  0
  8 20  4  0
 19 20  4  0
 20 21  1  0
 21 22  1  6
 21 23  2  0
 21 24  2  0
  9 25  4  0
 22 25  1  0
 10 26  4  0
  9 26  4  0
 10 27  4  0
 27 28  4  0
 25 28  4  0
 11 29  1  0
 10 29  1  0
 11 30  1  0
 11 31  1  0
 11 32  1  0
M  END
