1YV3_BIT_A_800
     RDKit          3D

 22 25  0  0  0  0  0  0  0  0999 V2000
   23.0843   41.8899   62.2666 O   0  0  0  0  0  0  0  0  0  0  0  0
   22.4288   42.7216   61.6279 C   0  0  0  0  0  0  0  0  0  0  0  0
   22.7292   44.1608   61.7827 C   0  0  0  0  0  0  0  0  0  0  0  0
   23.6890   44.6110   62.6540 C   0  0  0  0  0  0  0  0  0  0  0  0
   23.9525   45.9643   62.7771 C   0  0  0  0  0  0  0  0  0  0  0  0
   24.9862   46.4852   63.7121 C   0  0  0  0  0  0  0  0  0  0  0  0
   23.2577   46.8821   62.0289 C   0  0  0  0  0  0  0  0  0  0  0  0
   22.0334   45.1142   61.0306 C   0  0  0  0  0  0  0  0  0  0  0  0
   22.2967   46.4642   61.1536 C   0  0  0  0  0  0  0  0  0  0  0  0
   21.3737   42.3160   60.7320 C   0  0  2  0  0  0  0  0  0  0  0  0
   20.7247   43.4375   59.9682 C   0  0  0  0  0  0  0  0  0  0  0  0
   21.0333   44.6693   60.1253 N   0  0  0  0  0  0  0  0  0  0  0  0
   20.3179   41.6614   61.4093 O   0  0  0  0  0  0  0  0  0  0  0  0
   21.7377   41.4395   59.5615 C   0  0  0  0  0  0  0  0  0  0  0  0
   20.3603   41.3712   58.8786 C   0  0  0  0  0  0  0  0  0  0  0  0
   19.8211   42.7120   59.0968 N   0  0  0  0  0  0  0  0  0  0  0  0
   18.6148   43.2467   58.5524 C   0  0  0  0  0  0  0  0  0  0  0  0
   18.2655   43.0309   57.2482 C   0  0  0  0  0  0  0  0  0  0  0  0
   17.0981   43.5398   56.6953 C   0  0  0  0  0  0  0  0  0  0  0  0
   16.2704   44.2903   57.5087 C   0  0  0  0  0  0  0  0  0  0  0  0
   16.6341   44.5022   58.8271 C   0  0  0  0  0  0  0  0  0  0  0  0
   17.7971   43.9893   59.3595 C   0  0  0  0  0  0  0  0  0  0  0  0
  1  2  2  0
  2  3  1  0
  3  4  1  0
  4  5  2  0
  5  6  1  0
  5  7  1  0
  3  8  2  0
  7  9  2  0
  8  9  1  0
  2 10  1  0
 10 11  1  0
  8 12  1  0
 11 12  2  0
 10 13  1  1
 10 14  1  0
 14 15  1  0
 11 16  1  0
 15 16  1  0
 16 17  1  0
 17 18  2  0
 18 19  1  0
 19 20  2  0
 20 21  1  0
 17 22  1  0
 21 22  2  0
M  END
$$$$
