1YV3_BIT_A_800
     RDKit          3D

 22 25  0  0  0  0  0  0  0  0999 V2000
   25.9034   42.9210   49.2030 O   0  0  0  0  0  0  0  0  0  0  0  0
   25.7960   43.6175   48.1868 C   0  0  0  0  0  0  0  0  0  0  0  0
   25.7368   45.0891   48.3148 C   0  0  0  0  0  0  0  0  0  0  0  0
   25.7509   45.7111   49.5379 C   0  0  0  0  0  0  0  0  0  0  0  0
   25.6975   47.0914   49.6291 C   0  0  0  0  0  0  0  0  0  0  0  0
   25.7111   47.7968   50.9392 C   0  0  0  0  0  0  0  0  0  0  0  0
   25.6295   47.8642   48.4965 C   0  0  0  0  0  0  0  0  0  0  0  0
   25.6668   45.8967   47.1739 C   0  0  0  0  0  0  0  0  0  0  0  0
   25.6137   47.2737   47.2655 C   0  0  0  0  0  0  0  0  0  0  0  0
   25.7270   43.0225   46.8746 C   0  0  2  0  0  0  0  0  0  0  0  0
   25.6792   44.0037   45.7356 C   0  0  0  0  0  0  0  0  0  0  0  0
   25.6475   45.2724   45.8981 N   0  0  0  0  0  0  0  0  0  0  0  0
   24.5825   42.2058   46.7163 O   0  0  0  0  0  0  0  0  0  0  0  0
   26.9027   42.2046   46.4063 C   0  0  0  0  0  0  0  0  0  0  0  0
   26.4194   41.8894   44.9796 C   0  0  0  0  0  0  0  0  0  0  0  0
   25.7357   43.1202   44.5874 N   0  0  0  0  0  0  0  0  0  0  0  0
   25.2078   43.4305   43.2980 C   0  0  0  0  0  0  0  0  0  0  0  0
   23.8810   43.7088   43.1202 C   0  0  0  0  0  0  0  0  0  0  0  0
   23.3435   44.0133   41.8768 C   0  0  0  0  0  0  0  0  0  0  0  0
   24.1966   44.0311   40.7897 C   0  0  0  0  0  0  0  0  0  0  0  0
   25.5376   43.7477   40.9817 C   0  0  0  0  0  0  0  0  0  0  0  0
   26.0543   43.4474   42.2234 C   0  0  0  0  0  0  0  0  0  0  0  0
  1  2  2  0
  2  3  1  0
  3  4  1  0
  4  5  2  0
  5  6  1  0
  5  7  1  0
  3  8  2  0
  7  9  2  0
  8  9  1  0
  2 10  1  0
 10 11  1  0
  8 12  1  0
 11 12  2  0
 10 13  1  1
 10 14  1  0
 14 15  1  0
 11 16  1  0
 15 16  1  0
 16 17  1  0
 17 18  2  0
 18 19  1  0
 19 20  2  0
 20 21  1  0
 17 22  1  0
 21 22  2  0
M  END
$$$$
