1YV3_BIT_A_800
     RDKit          3D

 22 25  0  0  0  0  0  0  0  0999 V2000
   23.4949   46.0440   60.7313 O   0  0  0  0  0  0  0  0  0  0  0  0
   22.3137   45.6778   60.7388 C   0  0  0  0  0  0  0  0  0  0  0  0
   21.9885   44.2603   60.4735 C   0  0  0  0  0  0  0  0  0  0  0  0
   22.9591   43.3386   60.1711 C   0  0  0  0  0  0  0  0  0  0  0  0
   22.6272   42.0165   59.9301 C   0  0  0  0  0  0  0  0  0  0  0  0
   23.6550   40.9924   59.5998 C   0  0  0  0  0  0  0  0  0  0  0  0
   21.3196   41.6026   59.9892 C   0  0  0  0  0  0  0  0  0  0  0  0
   20.6625   43.8160   60.5280 C   0  0  0  0  0  0  0  0  0  0  0  0
   20.3319   42.4969   60.2876 C   0  0  0  0  0  0  0  0  0  0  0  0
   21.2428   46.6076   61.0018 C   0  0  2  0  0  0  0  0  0  0  0  0
   19.8703   45.9946   61.0560 C   0  0  0  0  0  0  0  0  0  0  0  0
   19.6420   44.7550   60.8359 N   0  0  0  0  0  0  0  0  0  0  0  0
   21.1627   47.6240   60.0207 O   0  0  0  0  0  0  0  0  0  0  0  0
   21.2221   47.3028   62.3386 C   0  0  0  0  0  0  0  0  0  0  0  0
   19.8974   48.0710   62.1863 C   0  0  0  0  0  0  0  0  0  0  0  0
   19.0587   47.1313   61.4449 N   0  0  0  0  0  0  0  0  0  0  0  0
   17.6709   47.2781   61.1447 C   0  0  0  0  0  0  0  0  0  0  0  0
   16.9335   48.3024   61.6706 C   0  0  0  0  0  0  0  0  0  0  0  0
   15.5828   48.4668   61.3940 C   0  0  0  0  0  0  0  0  0  0  0  0
   14.9782   47.5513   60.5537 C   0  0  0  0  0  0  0  0  0  0  0  0
   15.7346   46.5187   60.0273 C   0  0  0  0  0  0  0  0  0  0  0  0
   17.0746   46.3706   60.3127 C   0  0  0  0  0  0  0  0  0  0  0  0
  1  2  2  0
  2  3  1  0
  3  4  1  0
  4  5  2  0
  5  6  1  0
  5  7  1  0
  3  8  2  0
  7  9  2  0
  8  9  1  0
  2 10  1  0
 10 11  1  0
  8 12  1  0
 11 12  2  0
 10 13  1  6
 10 14  1  0
 14 15  1  0
 11 16  1  0
 15 16  1  0
 16 17  1  0
 17 18  2  0
 18 19  1  0
 19 20  2  0
 20 21  1  0
 17 22  1  0
 21 22  2  0
M  END
$$$$
