1YV3_BIT_A_800
     RDKit          3D

 22 25  0  0  0  0  0  0  0  0999 V2000
   28.4072   43.9608   60.2854 O   0  0  0  0  0  0  0  0  0  0  0  0
   27.1887   43.7986   60.4205 C   0  0  0  0  0  0  0  0  0  0  0  0
   26.2512   44.6487   59.6563 C   0  0  0  0  0  0  0  0  0  0  0  0
   26.6917   45.6514   58.8296 C   0  0  0  0  0  0  0  0  0  0  0  0
   25.7921   46.4307   58.1229 C   0  0  0  0  0  0  0  0  0  0  0  0
   26.2366   47.5254   57.2184 C   0  0  0  0  0  0  0  0  0  0  0  0
   24.4410   46.2146   58.2362 C   0  0  0  0  0  0  0  0  0  0  0  0
   24.8699   44.4466   59.7565 C   0  0  0  0  0  0  0  0  0  0  0  0
   23.9728   45.2243   59.0512 C   0  0  0  0  0  0  0  0  0  0  0  0
   26.6608   42.7940   61.3109 C   0  0  2  0  0  0  0  0  0  0  0  0
   25.1622   42.6657   61.3044 C   0  0  0  0  0  0  0  0  0  0  0  0
   24.3929   43.4159   60.6098 N   0  0  0  0  0  0  0  0  0  0  0  0
   27.0121   43.0362   62.6600 O   0  0  0  0  0  0  0  0  0  0  0  0
   27.0026   41.3529   61.0334 C   0  0  0  0  0  0  0  0  0  0  0  0
   26.1609   40.6921   62.1393 C   0  0  0  0  0  0  0  0  0  0  0  0
   24.9633   41.5288   62.1819 N   0  0  0  0  0  0  0  0  0  0  0  0
   23.7804   41.2893   62.9441 C   0  0  0  0  0  0  0  0  0  0  0  0
   22.7269   42.1602   62.9158 C   0  0  0  0  0  0  0  0  0  0  0  0
   21.5660   41.9498   63.6478 C   0  0  0  0  0  0  0  0  0  0  0  0
   21.4906   40.8119   64.4286 C   0  0  0  0  0  0  0  0  0  0  0  0
   22.5632   39.9375   64.4494 C   0  0  0  0  0  0  0  0  0  0  0  0
   23.7082   40.1623   63.7163 C   0  0  0  0  0  0  0  0  0  0  0  0
  1  2  2  0
  2  3  1  0
  3  4  1  0
  4  5  2  0
  5  6  1  0
  5  7  1  0
  3  8  2  0
  7  9  2  0
  8  9  1  0
  2 10  1  0
 10 11  1  0
  8 12  1  0
 11 12  2  0
 10 13  1  1
 10 14  1  0
 14 15  1  0
 11 16  1  0
 15 16  1  0
 16 17  1  0
 17 18  2  0
 18 19  1  0
 19 20  2  0
 20 21  1  0
 17 22  1  0
 21 22  2  0
M  END
$$$$
