7F8T_FAD_A_512
     RDKit          3D

 53 58  0  0  0  0  0  0  0  0999 V2000
   21.4125   24.3208   94.5445 P   0  0  1  0  0  5  0  0  0  0  0  0
   20.0685   24.9191   94.1251 O   0  0  0  0  0  0  0  0  0  0  0  0
   21.3061   23.9237   96.1966 O   0  0  0  0  0  0  0  0  0  0  0  0
   21.6443   22.8877   93.7115 O   0  0  0  0  0  0  0  0  0  0  0  0
   22.6990   22.1393   94.2173 C   0  0  0  0  0  0  0  0  0  0  0  0
   22.5249   21.7225   95.6228 C   0  0  1  0  0  0  0  0  0  0  0  0
   23.6811   21.4262   96.3354 O   0  0  0  0  0  0  0  0  0  0  0  0
   21.7995   22.7791   96.4159 C   0  0  1  0  0  0  0  0  0  0  0  0
   20.4356   22.4685   96.4306 O   0  0  0  0  0  0  0  0  0  0  0  0
   22.4108   22.6748   97.7749 C   0  0  1  0  0  0  0  0  0  0  0  0
   21.3792   22.3421   98.6822 O   0  0  0  0  0  0  0  0  0  0  0  0
   23.2938   21.4732   97.6783 C   0  0  2  0  0  0  0  0  0  0  0  0
   24.4395   21.4807   98.5261 N   0  0  0  0  0  0  0  0  0  0  0  0
   25.7172   21.8406   98.3236 C   0  0  0  0  0  0  0  0  0  0  0  0
   26.4424   21.6647   99.4416 N   0  0  0  0  0  0  0  0  0  0  0  0
   25.6347   21.1804  100.4017 C   0  0  0  0  0  0  0  0  0  0  0  0
   25.7963   20.8062  101.7335 C   0  0  0  0  0  0  0  0  0  0  0  0
   27.0881   20.9198  102.3458 N   0  0  0  0  0  0  0  0  0  0  0  0
   24.7446   20.3360  102.4602 N   0  0  0  0  0  0  0  0  0  0  0  0
   23.5448   20.2388  101.8711 C   0  0  0  0  0  0  0  0  0  0  0  0
   23.3468   20.5942  100.5730 N   0  0  0  0  0  0  0  0  0  0  0  0
   24.3860   21.0660   99.8303 C   0  0  0  0  0  0  0  0  0  0  0  0
   24.0566   24.6910  102.2735 N   0  0  0  0  0  0  0  0  0  0  0  0
   22.9650   25.3586  102.6850 C   0  0  0  0  0  0  0  0  0  0  0  0
   21.9491   25.2768  101.9237 O   0  0  0  0  0  0  0  0  0  0  0  0
   22.9086   26.0771  103.8200 N   0  0  0  0  0  0  0  0  0  0  0  0
   23.9940   26.1554  104.6192 C   0  0  0  0  0  0  0  0  0  0  0  0
   23.9641   26.8154  105.6753 O   0  0  0  0  0  0  0  0  0  0  0  0
   25.1489   25.4957  104.2593 C   0  0  0  0  0  0  0  0  0  0  0  0
   26.2699   25.5208  104.9960 N   0  0  0  0  0  0  0  0  0  0  0  0
   27.3849   24.8469  104.5907 C   0  0  0  0  0  0  0  0  0  0  0  0
   28.4805   24.9501  105.4326 C   0  0  0  0  0  0  0  0  0  0  0  0
   29.6494   24.2846  105.0677 C   0  0  0  0  0  0  0  0  0  0  0  0
   30.8663   24.3686  105.9502 C   0  0  0  0  0  0  0  0  0  0  0  0
   29.6503   23.5626  103.8926 C   0  0  0  0  0  0  0  0  0  0  0  0
   30.9469   22.8682  103.5608 C   0  0  0  0  0  0  0  0  0  0  0  0
   28.5530   23.4659  103.0599 C   0  0  0  0  0  0  0  0  0  0  0  0
   27.3967   24.1244  103.4214 C   0  0  0  0  0  0  0  0  0  0  0  0
   26.2892   24.0813  102.6639 N   0  0  0  0  0  0  0  0  0  0  0  0
   25.1570   24.7393  103.0322 C   0  0  0  0  0  0  0  0  0  0  0  0
   26.2523   23.3080  101.3986 C   0  0  0  0  0  0  0  0  0  0  0  0
   26.4842   24.2766  100.2802 C   0  0  2  0  0  0  0  0  0  0  0  0
   25.6428   25.3642  100.4347 O   0  0  0  0  0  0  0  0  0  0  0  0
   26.4232   23.7280   98.8803 C   0  0  2  0  0  0  0  0  0  0  0  0
   27.7383   23.9546   98.2998 O   0  0  0  0  0  0  0  0  0  0  0  0
   25.4777   24.4050   97.9468 C   0  0  2  0  0  0  0  0  0  0  0  0
   24.3558   24.9297   98.5427 O   0  0  0  0  0  0  0  0  0  0  0  0
   25.2781   23.6252   96.6889 C   0  0  0  0  0  0  0  0  0  0  0  0
   23.9959   23.9840   96.2126 O   0  0  0  0  0  0  0  0  0  0  0  0
   24.1695   24.7910   94.7466 P   0  0  1  0  0  5  0  0  0  0  0  0
   25.1689   25.9151   94.9591 O   0  0  0  0  0  0  0  0  0  0  0  0
   24.8455   23.7207   93.6252 O   0  0  0  0  0  0  0  0  0  0  0  0
   22.6842   25.3607   94.2471 O   0  0  0  0  0  0  0  0  0  0  0  0
  1  2  2  0
  1  3  1  1
  1  4  1  0
  5  4  1  6
  6  5  1  0
  6  7  1  1
  6  8  1  0
  8  9  1  1
  8 10  1  0
 10 11  1  1
  7 12  1  0
 10 12  1  0
 12 13  1  1
 13 14  1  0
 14 15  2  0
 15 16  1  0
 16 17  2  0
 17 18  1  0
 17 19  1  0
 19 20  2  0
 20 21  1  0
 13 22  1  0
 16 22  1  0
 21 22  2  0
 23 24  1  0
 24 25  2  0
 24 26  1  0
 26 27  1  0
 27 28  2  0
 27 29  1  0
 29 30  2  0
 30 31  1  0
 31 32  1  0
 32 33  2  0
 34 33  1  1
 33 35  1  0
 36 35  1  6
 35 37  2  0
 31 38  2  0
 37 38  1  0
 38 39  1  0
 23 40  2  0
 29 40  1  0
 39 40  1  0
 41 39  1  6
 41 42  1  0
 42 43  1  6
 42 44  1  0
 44 45  1  6
 44 46  1  0
 46 47  1  1
 46 48  1  0
 48 49  1  1
 50 49  1  0
 50 51  2  0
 50 52  1  6
  1 53  1  0
 50 53  1  0
M  END
$$$$
