
     RDKit          3D

 22 21  0  0  0  0  0  0  0  0999 V2000
    8.5191   22.9026   17.1150 C   0  0  0  0  0  0  0  0  0  0  0  0
    8.8343   22.3103   15.7400 C   0  0  0  0  0  0  0  0  0  0  0  0
    8.5493   23.2714   14.6049 C   0  0  0  0  0  0  0  0  0  0  0  0
    7.8664   24.2842   14.7155 O   0  0  0  0  0  0  0  0  0  0  0  0
    7.4737   20.8019   18.0444 C   0  0  0  0  0  0  0  0  0  0  0  0
    7.7925   20.5301   19.3325 O   0  0  0  0  0  0  0  0  0  0  0  0
    7.3519   19.8889   17.2446 O   0  0  0  0  0  0  0  0  0  0  0  0
    6.9716   23.0179   19.0487 N   0  0  0  0  0  0  0  0  0  0  0  0
    7.2724   22.3039   17.7818 C   0  0  1  0  0  0  0  0  0  0  0  0
    9.1076   22.8908   13.4111 N   0  0  0  0  0  0  0  0  0  0  0  0
    9.7317   23.8602   12.5089 C   0  0  1  0  0  0  0  0  0  0  0  0
   11.1952   23.5134   12.2276 C   0  0  0  0  0  0  0  0  0  0  0  0
   12.1952   23.5646   13.7579 S   0  0  0  0  0  4  0  0  0  0  0  0
   13.3093   22.5746   13.6117 O   0  0  0  0  0  0  0  0  0  0  0  0
   12.8827   24.9739   13.4079 O   0  0  0  0  0  0  0  0  0  0  0  0
    8.9144   23.8408   11.2041 C   0  0  0  0  0  0  0  0  0  0  0  0
    8.8552   22.8421   10.4861 O   0  0  0  0  0  0  0  0  0  0  0  0
    8.2633   25.0148   10.9025 N   0  0  0  0  0  0  0  0  0  0  0  0
    8.1806   25.4848    9.5274 C   0  0  0  0  0  0  0  0  0  0  0  0
    9.4526   26.1765    9.0534 C   0  0  0  0  0  0  0  0  0  0  0  0
   10.5187   25.3564    8.9201 O   0  0  0  0  0  0  0  0  0  0  0  0
    9.5781   27.3741    8.8489 O   0  0  0  0  0  0  0  0  0  0  0  0
  1  2  1  0
  2  3  1  0
  3  4  2  0
  5  6  1  0
  5  7  2  0
  1  9  1  0
  5  9  1  0
  9  8  1  1
  3 10  1  0
 10 11  1  0
 11 12  1  6
 12 13  1  0
 13 14  2  0
 13 15  1  0
 11 16  1  0
 16 17  2  0
 16 18  1  0
 18 19  1  0
 19 20  1  0
 20 21  1  0
 20 22  2  0
M  END
