7UJF_R3V_A_601
     RDKit          3D

 65 69  0  0  0  0  0  0  0  0999 V2000
   -2.5248    6.2381   -1.9661 C   0  0  0  0  0  0  0  0  0  0  0  0
   -3.1462    4.9806   -2.5968 C   0  0  2  0  0  0  0  0  0  0  0  0
   -4.3473    4.4734   -1.7797 C   0  0  0  0  0  0  0  0  0  0  0  0
   -2.0152    3.9616   -2.6167 C   0  0  0  0  0  0  0  0  0  0  0  0
   -1.0869    4.4225   -1.5154 C   0  0  0  0  0  0  0  0  0  0  0  0
   -1.1747    5.8904   -1.4797 N   0  0  0  0  0  0  0  0  0  0  0  0
   -0.9277    6.4398   -0.1305 C   0  0  0  0  0  0  0  0  0  0  0  0
    0.1006    5.6034    0.6377 C   0  0  0  0  0  0  0  0  0  0  0  0
    0.6241    4.5720   -0.2008 O   0  0  0  0  0  0  0  0  0  0  0  0
    1.1910    3.3624    0.2370 C   0  0  0  0  0  0  0  0  0  0  0  0
    0.6037    2.7219    1.3294 C   0  0  0  0  0  0  0  0  0  0  0  0
    1.0922    1.4965    1.7902 C   0  0  0  0  0  0  0  0  0  0  0  0
    2.2887    2.7539   -0.3958 C   0  0  0  0  0  0  0  0  0  0  0  0
    2.7633    1.5184    0.0546 C   0  0  0  0  0  0  0  0  0  0  0  0
    2.2131    0.8912    1.1925 C   0  0  0  0  0  0  0  0  0  0  0  0
    2.6916   -0.5176    1.5707 C   0  0  1  0  0  0  0  0  0  0  0  0
    2.1759   -1.0748    2.8938 C   0  0  0  0  0  0  0  0  0  0  0  0
    1.0788   -0.5468    3.6055 C   0  0  0  0  0  0  0  0  0  0  0  0
    0.6471   -1.1527    4.7897 C   0  0  0  0  0  0  0  0  0  0  0  0
    1.2776   -2.3103    5.2600 C   0  0  0  0  0  0  0  0  0  0  0  0
    0.8505   -2.9212    6.4374 O   0  0  0  0  0  0  0  0  0  0  0  0
    2.3272   -2.8751    4.5307 C   0  0  0  0  0  0  0  0  0  0  0  0
    2.7578   -2.2792    3.3360 C   0  0  0  0  0  0  0  0  0  0  0  0
    3.7628   -2.9601    2.4406 C   0  0  0  0  0  0  0  0  0  0  0  0
    3.2260   -3.0046    0.9937 C   0  0  0  0  0  0  0  0  0  0  0  0
    2.6184   -1.6493    0.4819 C   0  0  1  0  0  0  0  0  0  0  0  0
    1.2120   -1.8868   -0.0779 C   0  0  0  0  0  0  0  0  0  0  0  0
    0.9288   -2.9694   -0.9388 C   0  0  0  0  0  0  0  0  0  0  0  0
   -0.3617   -3.1621   -1.4411 C   0  0  0  0  0  0  0  0  0  0  0  0
   -1.3872   -2.2770   -1.0986 C   0  0  0  0  0  0  0  0  0  0  0  0
   -1.1127   -1.1709   -0.2937 C   0  0  0  0  0  0  0  0  0  0  0  0
    0.1829   -0.9622    0.1914 C   0  0  0  0  0  0  0  0  0  0  0  0
   -2.4296    7.0383   -2.7301 H   0  0  0  0  0  0  0  0  0  0  0  0
   -3.1772    6.6407   -1.1559 H   0  0  0  0  0  0  0  0  0  0  0  0
   -3.4920    5.1929   -3.6317 H   0  0  0  0  0  0  0  0  0  0  0  0
   -5.1603    5.2339   -1.7909 H   0  0  0  0  0  0  0  0  0  0  0  0
   -4.7518    3.5356   -2.2264 H   0  0  0  0  0  0  0  0  0  0  0  0
   -4.0484    4.2755   -0.7240 H   0  0  0  0  0  0  0  0  0  0  0  0
   -2.3534    2.9123   -2.4580 H   0  0  0  0  0  0  0  0  0  0  0  0
   -1.4841    4.0237   -3.5910 H   0  0  0  0  0  0  0  0  0  0  0  0
   -1.4159    3.9649   -0.5540 H   0  0  0  0  0  0  0  0  0  0  0  0
   -0.0415    4.1080   -1.7319 H   0  0  0  0  0  0  0  0  0  0  0  0
   -0.5243    7.4717   -0.2263 H   0  0  0  0  0  0  0  0  0  0  0  0
   -1.8746    6.4944    0.4560 H   0  0  0  0  0  0  0  0  0  0  0  0
    0.9464    6.2588    0.9334 H   0  0  0  0  0  0  0  0  0  0  0  0
   -0.3322    5.1796    1.5682 H   0  0  0  0  0  0  0  0  0  0  0  0
   -0.2610    3.1642    1.8078 H   0  0  0  0  0  0  0  0  0  0  0  0
    0.5458    1.0156    2.5778 H   0  0  0  0  0  0  0  0  0  0  0  0
    2.7626    3.2023   -1.2568 H   0  0  0  0  0  0  0  0  0  0  0  0
    3.5598    1.0397   -0.5005 H   0  0  0  0  0  0  0  0  0  0  0  0
    3.7802   -0.3516    1.7339 H   0  0  0  0  0  0  0  0  0  0  0  0
    0.5300    0.3095    3.2419 H   0  0  0  0  0  0  0  0  0  0  0  0
   -0.1910   -0.7317    5.3325 H   0  0  0  0  0  0  0  0  0  0  0  0
    0.0777   -2.5461    6.9771 H   0  0  0  0  0  0  0  0  0  0  0  0
    2.7763   -3.7972    4.8761 H   0  0  0  0  0  0  0  0  0  0  0  0
    4.7204   -2.4029    2.4724 H   0  0  0  0  0  0  0  0  0  0  0  0
    3.9617   -3.9959    2.7855 H   0  0  0  0  0  0  0  0  0  0  0  0
    2.4618   -3.8097    0.9541 H   0  0  0  0  0  0  0  0  0  0  0  0
    4.0410   -3.3355    0.3105 H   0  0  0  0  0  0  0  0  0  0  0  0
    3.2765   -1.3157   -0.3533 H   0  0  0  0  0  0  0  0  0  0  0  0
    1.7080   -3.6405   -1.2674 H   0  0  0  0  0  0  0  0  0  0  0  0
   -0.5729   -4.0003   -2.0970 H   0  0  0  0  0  0  0  0  0  0  0  0
   -2.3869   -2.4302   -1.4800 H   0  0  0  0  0  0  0  0  0  0  0  0
   -1.9027   -0.4687   -0.0512 H   0  0  0  0  0  0  0  0  0  0  0  0
    0.3812   -0.0768    0.7821 H   0  0  0  0  0  0  0  0  0  0  0  0
  1  2  1  0
  2  3  1  0
  2  4  1  0
  4  5  1  0
  1  6  1  0
  5  6  1  0
  6  7  1  0
  7  8  1  0
  8  9  1  0
  9 10  1  0
 10 11  4  0
 11 12  4  0
 10 13  4  0
 13 14  4  0
 14 15  4  0
 12 15  4  0
 16 15  1  0
 16 17  1  0
 17 18  4  0
 18 19  4  0
 19 20  4  0
 20 21  1  0
 20 22  4  0
 17 23  4  0
 22 23  4  0
 23 24  1  0
 24 25  1  0
 16 26  1  0
 25 26  1  0
 26 27  1  0
 27 28  4  0
 28 29  4  0
 29 30  4  0
 30 31  4  0
 31 32  4  0
 27 32  4  0
  1 33  1  0
  1 34  1  0
  2 35  1  1
  3 36  1  0
  3 37  1  0
  3 38  1  0
  4 39  1  0
  4 40  1  0
  5 41  1  0
  5 42  1  0
  7 43  1  0
  7 44  1  0
  8 45  1  0
  8 46  1  0
 11 47  1  0
 12 48  1  0
 13 49  1  0
 14 50  1  0
 16 51  1  6
 18 52  1  0
 19 53  1  0
 21 54  1  0
 22 55  1  0
 24 56  1  0
 24 57  1  0
 25 58  1  0
 25 59  1  0
 26 60  1  1
 28 61  1  0
 29 62  1  0
 30 63  1  0
 31 64  1  0
 32 65  1  0
M  END
