7NP6_UK8_A_601
     RDKit          3D

 32 35  0  0  0  0  0  0  0  0999 V2000
   -9.0296   38.1241    9.4861 C   0  0  0  0  0  0  0  0  0  0  0  0
   -9.3674   40.1880    7.6783 C   0  0  0  0  0  0  0  0  0  0  0  0
   -9.6079   41.3050    6.7235 C   0  0  1  0  0  0  0  0  0  0  0  0
   -3.0035   42.1969   10.6074 C   0  0  0  0  0  0  0  0  0  0  0  0
   -2.6234   42.3793   11.9399 C   0  0  0  0  0  0  0  0  0  0  0  0
   -3.0949   42.1491   14.3788 C   0  0  0  0  0  0  0  0  0  0  0  0
   -7.9519   38.5294    8.6983 C   0  0  0  0  0  0  0  0  0  0  0  0
  -10.2683   38.7573    9.3607 C   0  0  0  0  0  0  0  0  0  0  0  0
  -10.4537   39.7919    8.4606 C   0  0  0  0  0  0  0  0  0  0  0  0
   -5.2590   41.1139    6.1287 C   0  0  0  0  0  0  0  0  0  0  0  0
   -4.0994   41.9420    5.8735 C   0  0  0  0  0  0  0  0  0  0  0  0
   -3.4514   41.9912    4.6468 C   0  0  0  0  0  0  0  0  0  0  0  0
   -3.4052   42.8122    6.6738 C   0  0  0  0  0  0  0  0  0  0  0  0
   -3.4477   41.9791   12.9794 C   0  0  0  0  0  0  0  0  0  0  0  0
   -4.6552   41.3950   12.6550 C   0  0  0  0  0  0  0  0  0  0  0  0
   -5.0441   41.2083   11.3496 C   0  0  0  0  0  0  0  0  0  0  0  0
   -4.2184   41.6092   10.3043 C   0  0  0  0  0  0  0  0  0  0  0  0
   -5.9275   41.6968    8.5084 C   0  0  0  0  0  0  0  0  0  0  0  0
   -6.0664   40.9827    7.2287 C   0  0  0  0  0  0  0  0  0  0  0  0
   -7.0579   40.0343    6.9467 C   0  0  0  0  0  0  0  0  0  0  0  0
   -8.1292   39.5653    7.7937 C   0  0  0  0  0  0  0  0  0  0  0  0
   -9.4763   40.8881    5.3921 F   0  0  0  0  0  0  0  0  0  0  0  0
  -10.9263   41.7592    6.8389 F   0  0  0  0  0  0  0  0  0  0  0  0
   -8.7152   42.3397    6.8652 F   0  0  0  0  0  0  0  0  0  0  0  0
   -6.7897   39.6464    5.6880 N   0  0  0  0  0  0  0  0  0  0  0  0
   -2.4208   42.8560    4.7311 N   0  0  0  0  0  0  0  0  0  0  0  0
   -2.3988   43.3459    5.9522 N   0  0  0  0  0  0  0  0  0  0  0  0
   -3.8194   41.6943   15.3048 O   0  0  0  0  0  0  0  0  0  0  0  0
   -1.9402   42.8230   14.7405 O   0  0  0  0  0  0  0  0  0  0  0  0
   -4.6687   41.3928    9.0308 O   0  0  0  0  0  0  0  0  0  0  0  0
   -5.7500   40.2801    5.2357 O   0  0  0  0  0  0  0  0  0  0  0  0
   -6.3959   37.7586    8.8332 Cl  0  0  0  0  0  0  0  0  0  0  0  0
  2  3  1  0
  4  5  2  0
  1  7  2  0
  1  8  1  0
  2  9  1  0
  8  9  2  0
 10 11  1  0
 11 12  2  0
 11 13  1  0
  5 14  1  0
  6 14  1  0
 14 15  2  0
 15 16  1  0
 16 17  2  0
  4 17  1  0
 10 19  2  0
 18 19  1  0
 19 20  1  0
 20 21  1  0
  7 21  1  0
  2 21  2  0
  3 22  1  6
  3 23  1  0
  3 24  1  0
 20 25  2  0
 12 26  1  0
 26 27  1  0
 13 27  2  0
  6 28  2  0
  6 29  1  0
 18 30  1  1
 17 30  1  0
 25 31  1  0
 10 31  1  0
  7 32  1  0
M  END
$$$$
