1HP0_AD3_A_1315
     RDKit          3D

 33 35  0  0  0  0  0  0  0  0999 V2000
   -0.4699   10.5498    4.3853 O   0  0  0  0  0  0  0  0  0  0  0  0
    0.2726    9.3995    4.6939 C   0  0  0  0  0  0  0  0  0  0  0  0
   -0.5896    8.3662    5.4350 C   0  0  1  0  0  0  0  0  0  0  0  0
    0.1707    7.7749    6.4698 O   0  0  0  0  0  0  0  0  0  0  0  0
   -1.8675    8.9841    6.0242 C   0  0  1  0  0  0  0  0  0  0  0  0
   -2.9703    8.1496    5.7708 O   0  0  0  0  0  0  0  0  0  0  0  0
   -1.5657    9.0227    7.5018 C   0  0  1  0  0  0  0  0  0  0  0  0
   -2.7084    8.8110    8.2900 O   0  0  0  0  0  0  0  0  0  0  0  0
   -0.5733    7.8846    7.6622 C   0  0  2  0  0  0  0  0  0  0  0  0
    0.3201    8.1316    8.7975 N   0  0  0  0  0  4  0  0  0  0  0  0
    1.4631    7.4668    9.1065 C   0  0  0  0  0  0  0  0  0  0  0  0
    2.1214    7.9950   10.1712 N   0  0  0  0  0  0  0  0  0  0  0  0
    1.3450    9.0388   10.5179 C   0  0  0  0  0  0  0  0  0  0  0  0
    1.5435    9.9640   11.5421 C   0  0  0  0  0  0  0  0  0  0  0  0
    2.6699    9.8841   12.4159 N   0  0  0  0  0  0  0  0  0  0  0  0
    0.6240   10.9652   11.6884 N   0  0  0  0  0  0  0  0  0  0  0  0
   -0.4659   11.0783   10.8645 C   0  0  0  0  0  0  0  0  0  0  0  0
   -0.6747   10.1518    9.8269 C   0  0  0  0  0  0  0  0  0  0  0  0
    0.2671    9.1320    9.6923 C   0  0  0  0  0  0  0  0  0  0  0  0
   -0.8891   10.3951    3.4993 H   0  0  0  0  0  0  0  0  0  0  0  0
    0.7142    8.9482    3.7751 H   0  0  0  0  0  0  0  0  0  0  0  0
    1.1171    9.6964    5.3515 H   0  0  0  0  0  0  0  0  0  0  0  0
   -0.8585    7.5725    4.7027 H   0  0  0  0  0  0  0  0  0  0  0  0
   -2.0752   10.0131    5.6476 H   0  0  0  0  0  0  0  0  0  0  0  0
   -3.2402    8.3177    4.8303 H   0  0  0  0  0  0  0  0  0  0  0  0
   -1.0812    9.9930    7.7649 H   0  0  0  0  0  0  0  0  0  0  0  0
   -3.2312    9.6541    8.2559 H   0  0  0  0  0  0  0  0  0  0  0  0
   -1.1138    6.9231    7.8149 H   0  0  0  0  0  0  0  0  0  0  0  0
    1.8261    6.6086    8.5566 H   0  0  0  0  0  0  0  0  0  0  0  0
    2.7965   10.5909   13.1739 H   0  0  0  0  0  0  0  0  0  0  0  0
    3.3789    9.1244   12.3128 H   0  0  0  0  0  0  0  0  0  0  0  0
   -1.1683   11.8872   11.0136 H   0  0  0  0  0  0  0  0  0  0  0  0
   -1.5292   10.2349    9.1690 H   0  0  0  0  0  0  0  0  0  0  0  0
  1  2  1  0
  3  2  1  0
  3  4  1  0
  3  5  1  0
  5  6  1  0
  5  7  1  0
  7  8  1  0
  4  9  1  0
  7  9  1  0
  9 10  1  0
 10 11  4  0
 11 12  4  0
 12 13  4  0
 13 14  4  0
 14 15  1  0
 14 16  4  0
 16 17  4  0
 17 18  4  0
 10 19  4  0
 13 19  4  0
 18 19  4  0
  1 20  1  0
  2 21  1  0
  2 22  1  0
  3 23  1  6
  5 24  1  6
  6 25  1  0
  7 26  1  1
  8 27  1  0
  9 28  1  1
 11 29  1  0
 15 30  1  0
 15 31  1  0
 17 32  1  0
 18 33  1  0
M  CHG  1  10   1
M  END
