7JUD_MMA_B_802
     RDKit          3D

 13 13  0  0  0  0  0  0  0  0999 V2000
   -3.3524  -18.8223    6.7023 C   0  0  1  0  0  0  0  0  0  0  0  0
   -2.3639  -17.7607    6.3733 C   0  0  2  0  0  0  0  0  0  0  0  0
   -2.4626  -17.1721    4.9989 C   0  0  2  0  0  0  0  0  0  0  0  0
   -3.7916  -17.3325    4.3299 C   0  0  1  0  0  0  0  0  0  0  0  0
   -4.7957  -17.5282    5.4652 C   0  0  1  0  0  0  0  0  0  0  0  0
   -6.1571  -17.4681    4.8568 C   0  0  0  0  0  0  0  0  0  0  0  0
   -3.9981  -17.6140    8.5886 C   0  0  0  0  0  0  0  0  0  0  0  0
   -3.8059  -18.8340    7.9915 O   0  0  0  0  0  0  0  0  0  0  0  0
   -1.0687  -18.2960    6.4409 O   0  0  0  0  0  0  0  0  0  0  0  0
   -1.5005  -17.6771    4.1149 O   0  0  0  0  0  0  0  0  0  0  0  0
   -4.1803  -16.2542    3.5748 O   0  0  0  0  0  0  0  0  0  0  0  0
   -4.5211  -18.7990    5.9352 O   0  0  0  0  0  0  0  0  0  0  0  0
   -6.3385  -18.5502    4.0120 O   0  0  0  0  0  0  0  0  0  0  0  0
  1  2  1  0
  2  3  1  0
  3  4  1  0
  4  5  1  0
  5  6  1  0
  1  8  1  1
  7  8  1  6
  2  9  1  6
  3 10  1  6
  4 11  1  1
  1 12  1  0
  5 12  1  6
  6 13  1  1
M  END
$$$$
