7BJJ_TVW_A_301
     RDKit          3D

 10 11  0  0  0  0  0  0  0  0999 V2000
    6.5687   -4.3348   11.5310 C   0  0  0  0  0  0  0  0  0  0  0  0
    6.6681   -4.8799   12.7586 N   0  0  0  0  0  0  0  0  0  0  0  0
    7.0142   -4.4146    9.2536 C   0  0  0  0  0  0  0  0  0  0  0  0
    7.1081   -4.9593   10.4824 N   0  0  0  0  0  0  0  0  0  0  0  0
    5.8073   -2.6223   10.0415 C   0  0  0  0  0  0  0  0  0  0  0  0
    6.3911   -3.2563    9.0146 N   0  0  0  0  0  0  0  0  0  0  0  0
    5.8518   -3.1455   11.3168 C   0  0  0  0  0  0  0  0  0  0  0  0
    4.7662   -1.2218   11.4324 N   0  0  0  0  0  0  0  0  0  0  0  0
    5.2088   -2.2235   12.1753 C   0  0  0  0  0  0  0  0  0  0  0  0
    5.1501   -1.4502   10.1256 N   0  0  0  0  0  0  0  0  0  0  0  0
  1  2  1  0
  1  4  2  0
  3  4  1  0
  5  6  1  0
  3  6  2  0
  1  7  1  0
  5  7  1  0
  8  9  1  0
  7  9  2  0
  8 10  1  0
  5 10  2  0
M  END
