7Q2B_M6H_A_401
     RDKit          3D

 26 27  0  0  0  0  0  0  0  0999 V2000
   -3.0186    1.7478   -1.5930 C   0  0  0  0  0  0  0  0  0  0  0  0
   -2.3713    2.3268   -0.4981 C   0  0  0  0  0  0  0  0  0  0  0  0
   -2.8693    0.3825   -1.8517 C   0  0  0  0  0  0  0  0  0  0  0  0
   -1.5753    1.5411    0.3413 C   0  0  0  0  0  0  0  0  0  0  0  0
   -2.0744   -0.4069   -1.0147 C   0  0  0  0  0  0  0  0  0  0  0  0
    2.5950   -1.4336   -0.7069 C   0  0  0  0  0  0  0  0  0  0  0  0
    2.8662   -1.8264    0.7323 C   0  0  0  0  0  0  0  0  0  0  0  0
   -0.5455   -0.6733    0.9820 C   0  0  0  0  0  0  0  0  0  0  0  0
    0.9386   -0.5236    0.6046 C   0  0  0  0  0  0  0  0  0  0  0  0
   -1.4268    0.1661    0.0931 C   0  0  0  0  0  0  0  0  0  0  0  0
    1.2120   -0.9888   -0.7578 N   0  0  0  0  0  0  0  0  0  0  0  0
    1.7692   -1.2938    1.5318 N   0  0  0  0  0  0  0  0  0  0  0  0
   -3.6335    2.3574   -2.2424 H   0  0  0  0  0  0  0  0  0  0  0  0
   -2.4841    3.3850   -0.3012 H   0  0  0  0  0  0  0  0  0  0  0  0
   -3.3679   -0.0639   -2.7023 H   0  0  0  0  0  0  0  0  0  0  0  0
   -1.0736    2.0029    1.1828 H   0  0  0  0  0  0  0  0  0  0  0  0
   -1.9635   -1.4622   -1.2306 H   0  0  0  0  0  0  0  0  0  0  0  0
    2.7692   -2.2875   -1.3995 H   0  0  0  0  0  0  0  0  0  0  0  0
    3.2578   -0.5917   -1.0043 H   0  0  0  0  0  0  0  0  0  0  0  0
    3.8480   -1.4244    1.0711 H   0  0  0  0  0  0  0  0  0  0  0  0
    2.8771   -2.9331    0.8296 H   0  0  0  0  0  0  0  0  0  0  0  0
   -0.8455   -1.7433    0.9292 H   0  0  0  0  0  0  0  0  0  0  0  0
   -0.6854   -0.3543    2.0383 H   0  0  0  0  0  0  0  0  0  0  0  0
    1.2146    0.5560    0.6665 H   0  0  0  0  0  0  0  0  0  0  0  0
    0.6267   -1.8354   -0.9557 H   0  0  0  0  0  0  0  0  0  0  0  0
    2.1551   -0.6476    2.2605 H   0  0  0  0  0  0  0  0  0  0  0  0
  1  2  2  0
  1  3  1  0
  2  4  1  0
  3  5  2  0
  6  7  1  0
  8  9  1  0
  4 10  2  0
  8 10  1  0
  5 10  1  0
  6 11  1  0
  9 11  1  0
  9 12  1  0
  7 12  1  0
  1 13  1  0
  2 14  1  0
  3 15  1  0
  4 16  1  0
  5 17  1  0
  6 18  1  0
  6 19  1  0
  7 20  1  0
  7 21  1  0
  8 22  1  0
  8 23  1  0
  9 24  1  0
 11 25  1  0
 12 26  1  0
M  END
