7PRI_7TI_AAA_404
     RDKit          3D

 20 20  0  0  0  0  0  0  0  0999 V2000
   51.7380  -47.7200  -13.3000 Cl  0  0  0  0  0  0  0  0  0  0  0  0
   49.8510  -44.2700  -15.8960 O   0  0  0  0  0  0  0  0  0  0  0  0
   50.9980  -44.7010  -15.1200 S   0  0  0  0  0  0  0  0  0  0  0  0
   52.1680  -43.8840  -15.2000 O   0  0  0  0  0  0  0  0  0  0  0  0
   51.3300  -46.1720  -15.5250 N   0  0  0  0  0  0  0  0  0  0  0  0
   50.5100  -44.7310  -13.3810 C   0  0  0  0  0  0  0  0  0  0  0  0
   49.2790  -44.1980  -13.0350 C   0  0  0  0  0  0  0  0  0  0  0  0
   48.9220  -44.0170  -11.6970 C   0  0  0  0  0  0  0  0  0  0  0  0
   47.2790  -43.4630  -11.3200 S   0  0  0  0  0  0  0  0  0  0  0  0
   46.5150  -44.6100  -10.8840 O   0  0  0  0  0  0  0  0  0  0  0  0
   46.5870  -42.9430  -12.6650 N   0  0  0  0  0  0  0  0  0  0  0  0
   47.3960  -42.3450  -10.4190 O   0  0  0  0  0  0  0  0  0  0  0  0
   49.8440  -44.3340  -10.6680 C   0  0  0  0  0  0  0  0  0  0  0  0
   49.5880  -44.1080   -9.3380 N   0  0  0  0  0  0  0  0  0  0  0  0
   51.0600  -44.9230  -11.0530 C   0  0  0  0  0  0  0  0  0  0  0  0
   51.3860  -45.1760  -12.3880 C   0  0  0  0  0  0  0  0  0  0  0  0
   52.4240  -46.1430  -12.8030 C   0  0  0  0  0  0  0  0  0  0  0  0
   53.7250  -45.9310  -12.7710 C   0  0  0  0  0  0  0  0  0  0  0  0
   54.9420  -47.0360  -13.3490 Cl  0  0  0  0  0  0  0  0  0  0  0  0
   54.3010  -44.5060  -12.0110 Cl  0  0  0  0  0  0  0  0  0  0  0  0
  2  3  2  0
  3  4  2  0
  3  5  1  0
  3  6  1  0
  6  7  2  0
  7  8  1  0
  8  9  1  0
  9 10  2  0
  9 11  1  0
  9 12  2  0
  8 13  2  0
 13 14  1  0
 13 15  1  0
 15 16  2  0
  6 16  1  0
  1 17  1  0
 16 17  1  0
 17 18  2  0
 18 19  1  0
 18 20  1  0
M  END
$$$$
