
     RDKit          3D

 20 22  0  0  0  0  0  0  0  0999 V2000
   18.9689   -4.6975   33.8866 C   0  0  0  0  0  0  0  0  0  0  0  0
   19.7669   -4.2349   32.8494 C   0  0  0  0  0  0  0  0  0  0  0  0
   21.1017   -4.5037   32.9111 O   0  0  0  0  0  0  0  0  0  0  0  0
   19.2157   -3.5227   31.7897 C   0  0  0  0  0  0  0  0  0  0  0  0
   17.8386   -3.2727   31.7741 C   0  0  0  0  0  0  0  0  0  0  0  0
   17.3171   -2.5691   30.7255 O   0  0  0  0  0  0  0  0  0  0  0  0
   17.0142   -3.7334   32.8136 C   0  0  0  0  0  0  0  0  0  0  0  0
   15.5461   -3.5022   32.8521 C   0  0  0  0  0  0  0  0  0  0  0  0
   14.9515   -2.8828   31.9782 O   0  0  0  0  0  0  0  0  0  0  0  0
   14.8093   -4.0688   34.0228 C   0  0  0  0  0  0  0  0  0  0  0  0
   15.5306   -4.7168   34.9488 C   0  0  0  0  0  0  0  0  0  0  0  0
   16.8822   -4.9361   34.9301 O   0  0  0  0  0  0  0  0  0  0  0  0
   17.5955   -4.4458   33.8662 C   0  0  0  0  0  0  0  0  0  0  0  0
   13.3520   -3.9059   34.1977 C   0  0  0  0  0  0  0  0  0  0  0  0
   12.5693   -3.3494   33.1745 C   0  0  0  0  0  0  0  0  0  0  0  0
   11.1899   -3.1848   33.3342 C   0  0  0  0  0  0  0  0  0  0  0  0
   10.5879   -3.5789   34.5232 C   0  0  0  0  0  0  0  0  0  0  0  0
    9.2467   -3.4379   34.7217 O   0  0  0  0  0  0  0  0  0  0  0  0
   11.3398   -4.1361   35.5490 C   0  0  0  0  0  0  0  0  0  0  0  0
   12.7174   -4.3029   35.3865 C   0  0  0  0  0  0  0  0  0  0  0  0
  1  2  4  0
  2  3  1  0
  2  4  4  0
  4  5  4  0
  5  6  1  0
  5  7  4  0
  7  8  4  0
  8  9  2  0
  8 10  4  0
 10 11  4  0
 11 12  4  0
  1 13  4  0
  7 13  4  0
 12 13  4  0
 10 14  1  0
 14 15  4  0
 15 16  4  0
 16 17  4  0
 17 18  1  0
 17 19  4  0
 14 20  4  0
 19 20  4  0
M  END
