8CSD_C5P_B_501
     RDKit          3D

 35 36  0  0  0  0  0  0  0  0999 V2000
   13.9352   71.2391   34.3305 O   0  0  0  0  0  0  0  0  0  0  0  0
   15.0224   70.7560   33.3797 P   0  0  2  0  0  5  0  0  0  0  0  0
   15.6408   71.8536   32.5204 O   0  0  0  0  0  0  0  0  0  0  0  0
   14.8123   69.4230   32.6649 O   0  0  0  0  0  0  0  0  0  0  0  0
   16.3451   70.4328   34.5387 O   0  0  0  0  0  0  0  0  0  0  0  0
   17.6514   70.6441   34.2368 C   0  0  0  0  0  0  0  0  0  0  0  0
   17.7378   72.0452   33.3845 C   0  0  2  0  0  0  0  0  0  0  0  0
   17.2603   73.1406   34.1578 O   0  0  0  0  0  0  0  0  0  0  0  0
   16.7706   71.9712   32.2347 C   0  0  2  0  0  0  0  0  0  0  0  0
   17.2244   71.4281   31.0320 O   0  0  0  0  0  0  0  0  0  0  0  0
   16.4650   73.4970   31.9902 C   0  0  2  0  0  0  0  0  0  0  0  0
   17.5244   73.9776   31.2494 O   0  0  0  0  0  0  0  0  0  0  0  0
   16.5237   74.0542   33.4659 C   0  0  1  0  0  0  0  0  0  0  0  0
   15.1423   74.1595   34.0801 N   0  0  0  0  0  4  0  0  0  0  0  0
   14.7078   75.4848   34.5875 C   0  0  0  0  0  0  0  0  0  0  0  0
   13.3977   75.5120   35.1411 N   0  0  0  0  0  0  0  0  0  0  0  0
   12.5454   74.4087   35.2610 C   0  0  0  0  0  0  0  0  0  0  0  0
   13.0329   73.1468   34.7492 C   0  0  0  0  0  0  0  0  0  0  0  0
   14.2850   73.0790   34.1679 C   0  0  0  0  0  0  0  0  0  0  0  0
   15.4547   76.4455   34.4864 O   0  0  0  0  0  0  0  0  0  0  0  0
   11.3195   74.5497   35.8477 N   0  0  0  0  0  0  0  0  0  0  0  0
   13.1365   71.4564   33.8247 H   0  0  0  0  0  0  0  0  0  0  0  0
   14.1018   69.5152   32.0111 H   0  0  0  0  0  0  0  0  0  0  0  0
   18.2258   70.7268   35.1358 H   0  0  0  0  0  0  0  0  0  0  0  0
   18.0437   69.8293   33.6650 H   0  0  0  0  0  0  0  0  0  0  0  0
   18.7581   72.1766   33.0896 H   0  0  0  0  0  0  0  0  0  0  0  0
   15.9653   71.3174   32.4975 H   0  0  0  0  0  0  0  0  0  0  0  0
   17.9682   71.9546   30.6996 H   0  0  0  0  0  0  0  0  0  0  0  0
   15.5533   73.7407   31.4857 H   0  0  0  0  0  0  0  0  0  0  0  0
   18.3569   73.7619   31.6981 H   0  0  0  0  0  0  0  0  0  0  0  0
   16.9442   75.0378   33.4882 H   0  0  0  0  0  0  0  0  0  0  0  0
   12.4476   72.2995   34.8178 H   0  0  0  0  0  0  0  0  0  0  0  0
   14.5959   72.1749   33.7794 H   0  0  0  0  0  0  0  0  0  0  0  0
   11.0317   75.4302   36.1812 H   0  0  0  0  0  0  0  0  0  0  0  0
   10.7239   73.7709   35.9370 H   0  0  0  0  0  0  0  0  0  0  0  0
  2  1  1  6
  2  3  2  0
  2  4  1  0
  2  5  1  0
  5  6  1  0
  7  6  1  0
  7  8  1  0
  7  9  1  0
  9 10  1  0
  9 11  1  0
 11 12  1  0
  8 13  1  0
 11 13  1  0
 13 14  1  0
 14 15  4  0
 15 16  4  0
 16 17  4  0
 17 18  4  0
 14 19  4  0
 18 19  4  0
 15 20  2  0
 17 21  1  0
  1 22  1  0
  4 23  1  0
  6 24  1  0
  6 25  1  0
  7 26  1  1
  9 27  1  6
 10 28  1  0
 11 29  1  1
 12 30  1  0
 13 31  1  1
 18 32  1  0
 19 33  1  0
 21 34  1  0
 21 35  1  0
M  CHG  1  14   1
M  END
