1HWI_115_B_1
     RDKit          3D

 56 58  0  0  0  0  0  0  0  0999 V2000
   34.1732   -6.1829  -13.2067 C   0  0  0  0  0  0  0  0  0  0  0  0
   33.8559   -4.8549  -13.0104 C   0  0  0  0  0  0  0  0  0  0  0  0
   33.6020   -4.0275  -14.1262 C   0  0  0  0  0  0  0  0  0  0  0  0
   33.6740   -4.5674  -15.4304 C   0  0  0  0  0  0  0  0  0  0  0  0
   33.9943   -5.9225  -15.6102 C   0  0  0  0  0  0  0  0  0  0  0  0
   34.2466   -6.7387  -14.4971 C   0  0  0  0  0  0  0  0  0  0  0  0
   34.4026   -6.8414  -11.8693 C   0  0  0  0  0  0  0  0  0  0  0  0
   34.1876   -5.8079  -11.0282 C   0  0  0  0  0  0  0  0  0  0  0  0
   33.8477   -4.5801  -11.7465 N   0  0  0  0  0  4  0  0  0  0  0  0
   34.6372  -10.6441  -12.1376 C   0  0  0  0  0  0  0  0  0  0  0  0
   34.2746   -9.3191  -12.3962 C   0  0  0  0  0  0  0  0  0  0  0  0
   34.7743   -8.2897  -11.5890 C   0  0  0  0  0  0  0  0  0  0  0  0
   35.6381   -8.5939  -10.5252 C   0  0  0  0  0  0  0  0  0  0  0  0
   35.9991   -9.9185  -10.2681 C   0  0  0  0  0  0  0  0  0  0  0  0
   35.4973  -10.9425  -11.0781 C   0  0  0  0  0  0  0  0  0  0  0  0
   35.8519  -12.2381  -10.8349 F   0  0  0  0  0  0  0  0  0  0  0  0
   30.4503   -8.8885   -7.1448 O   0  0  0  0  0  0  0  0  0  0  0  0
   30.6887   -6.9053   -8.2552 O   0  0  0  0  0  0  0  0  0  0  0  0
   32.6714  -10.3086   -6.9705 O   0  0  0  0  0  0  0  0  0  0  0  0
   31.0558   -8.1800   -7.9403 C   0  0  0  0  0  0  0  0  0  0  0  0
   32.3127   -8.6329   -8.6722 C   0  0  0  0  0  0  0  0  0  0  0  0
   33.3485   -9.3346   -7.7778 C   0  0  1  0  0  0  0  0  0  0  0  0
   34.0444   -8.3270   -6.8523 C   0  0  0  0  0  0  0  0  0  0  0  0
   33.9157   -6.8775   -7.3304 C   0  0  1  0  0  0  0  0  0  0  0  0
   33.6923   -6.8247   -8.8248 C   0  0  0  0  0  0  0  0  0  0  0  0
   34.2864   -5.9670   -9.6733 C   0  0  0  0  0  0  0  0  0  0  0  0
   33.6106   -3.2389  -11.0717 C   0  0  1  0  0  0  0  0  0  0  0  0
   32.5688   -2.3884  -11.8049 C   0  0  0  0  0  0  0  0  0  0  0  0
   33.2289   -3.4268   -9.5899 C   0  0  0  0  0  0  0  0  0  0  0  0
   32.8311   -6.3055   -6.6192 O   0  0  0  0  0  0  0  0  0  0  0  0
   33.3648   -3.0325  -13.9899 H   0  0  0  0  0  0  0  0  0  0  0  0
   33.4914   -3.9665  -16.2493 H   0  0  0  0  0  0  0  0  0  0  0  0
   34.0442   -6.3185  -16.5620 H   0  0  0  0  0  0  0  0  0  0  0  0
   34.4833   -7.7352  -14.6235 H   0  0  0  0  0  0  0  0  0  0  0  0
   34.2685  -11.4038  -12.7309 H   0  0  0  0  0  0  0  0  0  0  0  0
   33.6403   -9.1001  -13.1801 H   0  0  0  0  0  0  0  0  0  0  0  0
   36.0078   -7.8357   -9.9305 H   0  0  0  0  0  0  0  0  0  0  0  0
   36.6329  -10.1405   -9.4845 H   0  0  0  0  0  0  0  0  0  0  0  0
   31.1923   -6.4115   -8.8721 H   0  0  0  0  0  0  0  0  0  0  0  0
   32.2271  -10.9519   -7.5446 H   0  0  0  0  0  0  0  0  0  0  0  0
   32.7751   -7.7720   -9.1082 H   0  0  0  0  0  0  0  0  0  0  0  0
   32.0004   -9.3515   -9.4009 H   0  0  0  0  0  0  0  0  0  0  0  0
   34.0859   -9.7971   -8.4001 H   0  0  0  0  0  0  0  0  0  0  0  0
   35.0837   -8.5761   -6.7989 H   0  0  0  0  0  0  0  0  0  0  0  0
   33.5655   -8.3898   -5.8975 H   0  0  0  0  0  0  0  0  0  0  0  0
   34.8137   -6.3274   -7.1411 H   0  0  0  0  0  0  0  0  0  0  0  0
   33.0280   -7.5040   -9.2277 H   0  0  0  0  0  0  0  0  0  0  0  0
   34.9367   -5.3074   -9.2184 H   0  0  0  0  0  0  0  0  0  0  0  0
   34.5345   -2.7012  -11.1178 H   0  0  0  0  0  0  0  0  0  0  0  0
   31.6228   -2.8878  -11.7852 H   0  0  0  0  0  0  0  0  0  0  0  0
   32.8756   -2.2454  -12.8201 H   0  0  0  0  0  0  0  0  0  0  0  0
   32.4805   -1.4378  -11.3218 H   0  0  0  0  0  0  0  0  0  0  0  0
   32.3057   -3.9636   -9.5246 H   0  0  0  0  0  0  0  0  0  0  0  0
   33.1182   -2.4691   -9.1259 H   0  0  0  0  0  0  0  0  0  0  0  0
   33.9982   -3.9782   -9.0907 H   0  0  0  0  0  0  0  0  0  0  0  0
   32.0236   -6.8124   -6.7985 H   0  0  0  0  0  0  0  0  0  0  0  0
  1  2  4  0
  2  3  4  0
  3  4  4  0
  4  5  4  0
  1  6  4  0
  5  6  4  0
  1  7  4  0
  7  8  4  0
  8  9  4  0
  2  9  4  0
 10 11  4  0
  7 12  1  0
 11 12  4  0
 12 13  4  0
 13 14  4  0
 14 15  4  0
 10 15  4  0
 15 16  1  0
 17 20  2  0
 18 20  1  0
 20 21  1  0
 21 22  1  0
 22 19  1  0
 22 23  1  0
 23 24  1  0
 24 25  1  0
 25 26  2  3
  8 26  1  0
  9 27  1  0
 27 28  1  0
 27 29  1  0
 24 30  1  0
  3 31  1  0
  4 32  1  0
  5 33  1  0
  6 34  1  0
 10 35  1  0
 11 36  1  0
 13 37  1  0
 14 38  1  0
 18 39  1  0
 19 40  1  0
 21 41  1  0
 21 42  1  0
 22 43  1  6
 23 44  1  0
 23 45  1  0
 24 46  1  6
 25 47  1  0
 26 48  1  0
 27 49  1  1
 28 50  1  0
 28 51  1  0
 28 52  1  0
 29 53  1  0
 29 54  1  0
 29 55  1  0
 30 56  1  0
M  CHG  1   9   1
M  END
