7XIJ_EJ3_A_1201
     RDKit          3D

 33 36  0  0  0  0  0  0  0  0999 V2000
   29.8229  -15.8418    1.3315 C   0  0  0  0  0  0  0  0  0  0  0  0
   28.4429  -16.0467    0.6699 C   0  0  0  0  0  0  0  0  0  0  0  0
   27.8836  -17.1406    0.8098 O   0  0  0  0  0  0  0  0  0  0  0  0
   27.9919  -15.0896   -0.1903 N   0  0  0  0  0  0  0  0  0  0  0  0
   28.5788  -13.8939   -0.4760 C   0  0  0  0  0  0  0  0  0  0  0  0
   26.9129  -15.1966   -0.9864 C   0  0  0  0  0  0  0  0  0  0  0  0
   25.9819  -16.1862   -1.0892 C   0  0  0  0  0  0  0  0  0  0  0  0
   24.9044  -16.0951   -1.9499 C   0  0  0  0  0  0  0  0  0  0  0  0
   24.7706  -14.9718   -2.7343 C   0  0  0  0  0  0  0  0  0  0  0  0
   23.6850  -15.0016   -3.5770 O   0  0  0  0  0  0  0  0  0  0  0  0
   23.3509  -13.8227   -4.2811 C   0  0  0  0  0  0  0  0  0  0  0  0
   25.7566  -13.9540   -2.6058 C   0  0  0  0  0  0  0  0  0  0  0  0
   26.8004  -14.0631   -1.7372 C   0  0  0  0  0  0  0  0  0  0  0  0
   27.8671  -13.2531   -1.4151 C   0  0  0  0  0  0  0  0  0  0  0  0
   28.1685  -11.9908   -1.9287 C   0  0  0  0  0  0  0  0  0  0  0  0
   27.7471  -11.6509   -3.0448 O   0  0  0  0  0  0  0  0  0  0  0  0
   28.8869  -11.1392   -1.1120 N   0  0  0  0  0  0  0  0  0  0  0  0
   29.5098   -9.9669   -1.5141 C   0  0  0  0  0  0  0  0  0  0  0  0
   30.1641   -9.8358   -2.7554 C   0  0  0  0  0  0  0  0  0  0  0  0
   30.1547  -10.8445   -3.5865 F   0  0  0  0  0  0  0  0  0  0  0  0
   29.5386   -8.9033   -0.6151 C   0  0  0  0  0  0  0  0  0  0  0  0
   30.1732   -7.6899   -0.9012 C   0  0  0  0  0  0  0  0  0  0  0  0
   30.1436   -6.6422    0.0485 C   0  0  0  0  0  0  0  0  0  0  0  0
   29.5198   -6.7628    1.1395 O   0  0  0  0  0  0  0  0  0  0  0  0
   30.7394   -5.5602   -0.1636 O   0  0  0  0  0  0  0  0  0  0  0  0
   30.8196   -7.5634   -2.1455 C   0  0  0  0  0  0  0  0  0  0  0  0
   30.8386   -8.6130   -3.0902 C   0  0  0  0  0  0  0  0  0  0  0  0
   31.4911   -8.4303   -4.2735 C   0  0  0  0  0  0  0  0  0  0  0  0
   32.3214   -9.2744   -4.9014 C   0  0  0  0  0  0  0  0  0  0  0  0
   31.3960   -7.3285   -5.0387 C   0  0  0  0  0  0  0  0  0  0  0  0
   32.1593   -7.4906   -6.1333 N   0  0  0  0  0  0  0  0  0  0  0  0
   32.7346   -8.6896   -6.0360 N   0  0  0  0  0  0  0  0  0  0  0  0
   33.6618   -9.2119   -7.0807 C   0  0  0  0  0  0  0  0  0  0  0  0
  1  2  1  0
  2  3  2  0
  2  4  1  0
  4  5  1  0
  4  6  1  0
  6  7  2  0
  7  8  1  0
  8  9  2  0
  9 10  1  0
 10 11  1  0
  9 12  1  0
  6 13  1  0
 12 13  2  0
  5 14  2  0
 13 14  1  0
 14 15  1  0
 15 16  2  0
 15 17  1  0
 17 18  1  0
 18 19  2  0
 19 20  1  0
 18 21  1  0
 21 22  2  0
 22 23  1  0
 23 24  1  0
 23 25  2  0
 22 26  1  0
 26 27  2  0
 19 27  1  0
 27 28  1  0
 28 29  2  0
 28 30  1  0
 30 31  2  0
 31 32  1  0
 29 32  1  0
 32 33  1  0
M  END
