1N46_PFA_A_462
     RDKit          3D

 27 29  0  0  0  0  0  0  0  0999 V2000
   13.1680   -5.2586   -9.0726 O   0  0  0  0  0  0  0  0  0  0  0  0
   14.2418   -5.5861   -9.4815 C   0  0  0  0  0  0  0  0  0  0  0  0
   15.4561   -5.0569   -9.1096 N   0  0  0  0  0  0  0  0  0  0  0  0
   16.6293   -5.5116   -9.6393 C   0  0  0  0  0  0  0  0  0  0  0  0
   17.7186   -5.0675   -9.3524 O   0  0  0  0  0  0  0  0  0  0  0  0
   14.2191   -6.5799  -10.3569 N   0  0  0  0  0  0  0  0  0  0  0  0
   15.4190   -7.1020  -10.9045 N   0  0  0  0  0  0  0  0  0  0  0  0
   16.5693   -6.6312  -10.5787 C   0  0  0  0  0  0  0  0  0  0  0  0
   13.0885   -7.1967  -10.9291 C   0  0  0  0  0  0  0  0  0  0  0  0
   12.8062   -6.7268  -12.2754 C   0  0  0  0  0  0  0  0  0  0  0  0
   11.6703   -7.2528  -12.9475 C   0  0  0  0  0  0  0  0  0  0  0  0
   11.3103   -6.8332  -14.2995 C   0  0  0  0  0  0  0  0  0  0  0  0
   12.2550   -8.1287  -10.3379 C   0  0  0  0  0  0  0  0  0  0  0  0
   11.1817   -8.7250  -11.0271 C   0  0  0  0  0  0  0  0  0  0  0  0
   10.2748   -9.7562  -10.3244 C   0  0  0  0  0  0  0  0  0  0  0  0
   10.8733   -8.2597  -12.3316 C   0  0  0  0  0  0  0  0  0  0  0  0
    9.7431   -8.7986  -12.9089 O   0  0  0  0  0  0  0  0  0  0  0  0
    9.8887   -9.6132  -14.0212 C   0  0  0  0  0  0  0  0  0  0  0  0
   11.1505  -10.2273  -14.3645 C   0  0  0  0  0  0  0  0  0  0  0  0
    8.6979   -9.8047  -14.8107 C   0  0  0  0  0  0  0  0  0  0  0  0
    8.7648  -10.6351  -15.9585 C   0  0  0  0  0  0  0  0  0  0  0  0
    7.5231  -10.8187  -16.8616 C   0  0  1  0  0  0  0  0  0  0  0  0
    6.6738  -11.9827  -16.2645 C   0  0  0  0  0  0  0  0  0  0  0  0
    6.7676   -9.4663  -16.8319 C   0  0  0  0  0  0  0  0  0  0  0  0
   10.0115  -11.1963  -16.3242 C   0  0  0  0  0  0  0  0  0  0  0  0
   11.1602  -11.0352  -15.5100 C   0  0  0  0  0  0  0  0  0  0  0  0
   10.1305  -11.9831  -17.4487 O   0  0  0  0  0  0  0  0  0  0  0  0
  1  2  2  0
  2  3  1  0
  3  4  1  0
  4  5  2  0
  2  6  1  0
  6  7  1  0
  4  8  1  0
  7  8  2  0
  6  9  1  0
  9 10  2  0
 10 11  1  0
 11 12  1  0
  9 13  1  0
 13 14  2  0
 14 15  1  0
 11 16  2  0
 14 16  1  0
 16 17  1  0
 17 18  1  0
 18 19  2  0
 18 20  1  0
 20 21  2  0
 21 22  1  0
 22 23  1  1
 22 24  1  0
 21 25  1  0
 19 26  1  0
 25 26  2  0
 25 27  1  0
M  END
