
     RDKit          3D

 49 53  0  0  0  0  0  0  0  0999 V2000
    2.4323  -19.9225   24.2697 C   0  0  0  0  0  0  0  0  0  0  0  0
    1.9374  -19.6326   23.0117 C   0  0  0  0  0  0  0  0  0  0  0  0
    2.7171  -18.8763   22.1181 C   0  0  0  0  0  0  0  0  0  0  0  0
    2.1314  -18.5445   20.8083 C   0  0  0  0  0  0  0  0  0  0  0  0
    1.8636  -19.5572   19.8733 C   0  0  0  0  0  0  0  0  0  0  0  0
    1.3014  -19.2584   18.6297 C   0  0  0  0  0  0  0  0  0  0  0  0
    0.9999  -17.9345   18.2857 C   0  0  0  0  0  0  0  0  0  0  0  0
    1.2887  -16.9172   19.2069 C   0  0  0  0  0  0  0  0  0  0  0  0
    1.8497  -17.2193   20.4521 C   0  0  0  0  0  0  0  0  0  0  0  0
    9.0875  -18.2206   21.1889 C   0  0  0  0  0  0  0  0  0  0  0  0
    0.4108  -17.5953   16.9372 C   0  0  0  0  0  0  0  0  0  0  0  0
    6.9211  -16.4533   19.1440 C   0  0  0  0  0  0  0  0  0  0  0  0
    6.3332  -16.8606   17.9357 C   0  0  0  0  0  0  0  0  0  0  0  0
    6.4033  -16.0539   16.8006 C   0  0  0  0  0  0  0  0  0  0  0  0
    7.0699  -14.8317   16.8532 C   0  0  0  0  0  0  0  0  0  0  0  0
    7.6712  -14.3996   18.0437 C   0  0  0  0  0  0  0  0  0  0  0  0
    7.6008  -15.2240   19.1799 C   0  0  0  0  0  0  0  0  0  0  0  0
    8.4225  -13.0911   18.0919 C   0  0  0  0  0  0  0  0  0  0  0  0
   10.2632  -17.3703   20.8849 C   0  0  0  0  0  0  0  0  0  0  0  0
    9.9950  -16.0192   20.6753 C   0  0  0  0  0  0  0  0  0  0  0  0
   12.2124  -15.5100   20.3605 C   0  0  0  0  0  0  0  0  0  0  0  0
   12.5869  -16.8282   20.5639 C   0  0  0  0  0  0  0  0  0  0  0  0
   11.6058  -17.7966   20.8422 C   0  0  0  0  0  0  0  0  0  0  0  0
    6.9025  -17.3493   20.3773 C   0  0  1  0  0  0  0  0  0  0  0  0
   12.0484  -19.1745   21.1096 C   0  0  0  0  0  0  0  0  0  0  0  0
   12.3462  -20.0568   20.0614 C   0  0  0  0  0  0  0  0  0  0  0  0
   12.7989  -21.3547   20.3166 C   0  0  0  0  0  0  0  0  0  0  0  0
   12.9468  -21.8101   21.6333 C   0  0  0  0  0  0  0  0  0  0  0  0
   12.6450  -20.9356   22.6863 C   0  0  0  0  0  0  0  0  0  0  0  0
   12.1975  -19.6362   22.4271 C   0  0  0  0  0  0  0  0  0  0  0  0
   13.4549  -23.2069   21.9075 C   0  0  0  0  0  0  0  0  0  0  0  0
    5.5495  -18.1158   20.5748 C   0  0  0  0  0  0  0  0  0  0  0  0
    3.9977  -18.4443   22.5344 C   0  0  0  0  0  0  0  0  0  0  0  0
    4.3901  -18.7934   23.8282 C   0  0  0  0  0  0  0  0  0  0  0  0
    1.1547  -16.6857   16.2488 F   0  0  0  0  0  0  0  0  0  0  0  0
   -0.8483  -17.0813   17.0097 F   0  0  0  0  0  0  0  0  0  0  0  0
    0.3184  -18.6893   16.1303 F   0  0  0  0  0  0  0  0  0  0  0  0
    9.1732  -12.8643   16.9781 F   0  0  0  0  0  0  0  0  0  0  0  0
    7.5849  -12.0224   18.2009 F   0  0  0  0  0  0  0  0  0  0  0  0
    9.2819  -13.0016   19.1443 F   0  0  0  0  0  0  0  0  0  0  0  0
   14.7107  -23.4190   21.4268 F   0  0  0  0  0  0  0  0  0  0  0  0
   12.6748  -24.1769   21.3531 F   0  0  0  0  0  0  0  0  0  0  0  0
   13.5046  -23.4820   23.2392 F   0  0  0  0  0  0  0  0  0  0  0  0
    3.6372  -19.5140   24.7000 N   0  0  0  0  0  0  0  0  0  0  0  0
    8.0521  -18.2533   20.2946 N   0  0  0  0  0  0  0  0  0  0  0  0
   10.9374  -15.0848   20.4112 N   0  0  0  0  0  0  0  0  0  0  0  0
    4.8008  -17.6689   21.6569 N   0  0  0  0  0  0  0  0  0  0  0  0
    9.0679  -18.9039   22.2079 O   0  0  0  0  0  0  0  0  0  0  0  0
    5.1609  -18.9681   19.7793 O   0  0  0  0  0  0  0  0  0  0  0  0
  1  2  4  0
  2  3  4  0
  3  4  1  0
  4  5  4  0
  5  6  4  0
  6  7  4  0
  7  8  4  0
  8  9  4  0
  4  9  4  0
  7 11  1  0
 12 13  4  0
 13 14  4  0
 14 15  4  0
 15 16  4  0
 16 17  4  0
 12 17  4  0
 16 18  1  0
 10 19  1  0
 19 20  4  0
 21 22  4  0
 19 23  4  0
 22 23  4  0
 12 24  1  0
 23 25  1  0
 25 26  4  0
 26 27  4  0
 27 28  4  0
 28 29  4  0
 29 30  4  0
 25 30  4  0
 28 31  1  0
 24 32  1  0
  3 33  4  0
 33 34  4  0
 11 35  1  0
 11 36  1  0
 11 37  1  0
 18 38  1  0
 18 39  1  0
 18 40  1  0
 31 41  1  0
 31 42  1  0
 31 43  1  0
  1 44  4  0
 34 44  4  0
 24 45  1  6
 10 45  1  0
 20 46  4  0
 21 46  4  0
 33 47  1  0
 32 47  1  0
 10 48  2  0
 32 49  2  0
M  END
