6Z0R_Q4H_A_301
     RDKit          3D

 13 13  0  0  0  0  0  0  0  0999 V2000
   -2.7923   -0.2079    0.0326 N   0  0  0  0  0  0  0  0  0  0  0  0
   -1.6756   -0.1095    0.3201 C   0  0  0  0  0  0  0  0  0  0  0  0
   -0.2844    0.0124    0.6789 C   0  0  0  0  0  0  0  0  0  0  0  0
    0.2828   -0.9044    1.5689 C   0  0  0  0  0  0  0  0  0  0  0  0
    1.5919   -0.7982    1.9130 N   0  0  0  0  0  0  0  0  0  0  0  0
    2.3686    0.1918    1.4039 C   0  0  0  0  0  0  0  0  0  0  0  0
    1.8403    1.0943    0.5376 N   0  0  0  0  0  0  0  0  0  0  0  0
    0.5350    1.0325    0.1605 C   0  0  0  0  0  0  0  0  0  0  0  0
    0.0288    2.0090   -0.7556 N   0  0  0  0  0  0  0  0  0  0  0  0
   -0.3136   -1.7042    1.9903 H   0  0  0  0  0  0  0  0  0  0  0  0
    3.4094    0.2620    1.6885 H   0  0  0  0  0  0  0  0  0  0  0  0
   -0.9648    2.0045   -1.0754 H   0  0  0  0  0  0  0  0  0  0  0  0
    0.6608    2.7543   -1.1235 H   0  0  0  0  0  0  0  0  0  0  0  0
  1  2  3  0
  2  3  1  0
  3  4  2  0
  4  5  1  0
  5  6  2  0
  6  7  1  0
  7  8  2  0
  3  8  1  0
  8  9  1  0
  4 10  1  0
  6 11  1  0
  9 12  1  0
  9 13  1  0
M  END
