7JHQ_VAJ_A_301
     RDKit          3D

 18 19  0  0  0  0  0  0  0  0999 V2000
   29.5834  -85.3746   28.5924 C   0  0  0  0  0  0  0  0  0  0  0  0
   28.7055  -84.7727   29.4634 C   0  0  0  0  0  0  0  0  0  0  0  0
   29.0039  -84.6615   30.8028 C   0  0  0  0  0  0  0  0  0  0  0  0
   30.2037  -85.1566   31.3078 C   0  0  0  0  0  0  0  0  0  0  0  0
   30.4492  -85.0007   32.7386 C   0  0  0  0  0  0  0  0  0  0  0  0
   29.7481  -84.6339   35.0062 C   0  0  0  0  0  0  0  0  0  0  0  0
   31.0651  -84.7234   35.4481 C   0  0  0  0  0  0  0  0  0  0  0  0
   33.4859  -85.0576   34.9318 C   0  0  0  0  0  0  0  0  0  0  0  0
   29.2453  -85.4783   27.1877 C   0  0  0  0  0  0  0  0  0  0  0  0
   30.1093  -85.9074   26.3689 O   0  0  0  0  0  0  0  0  0  0  0  0
   32.0757  -84.9513   34.5390 C   0  0  0  0  0  0  0  0  0  0  0  0
   31.7479  -85.0846   33.2090 C   0  0  0  0  0  0  0  0  0  0  0  0
   31.0657  -85.7502   30.4391 C   0  0  0  0  0  0  0  0  0  0  0  0
   30.7723  -85.8678   29.0799 C   0  0  0  0  0  0  0  0  0  0  0  0
   29.4448  -84.7724   33.6562 C   0  0  0  0  0  0  0  0  0  0  0  0
   27.9896  -85.1143   26.7302 O   0  0  0  0  0  0  0  0  0  0  0  0
   33.8287  -84.9306   36.1533 O   0  0  0  0  0  0  0  0  0  0  0  0
   34.4907  -85.2967   34.0091 O   0  0  0  0  0  0  0  0  0  0  0  0
  1  2  2  0
  2  3  1  0
  3  4  2  0
  4  5  1  0
  6  7  2  0
  1  9  1  0
  9 10  2  0
  7 11  1  0
  8 11  1  0
  5 12  1  0
 11 12  2  0
  4 13  1  0
  1 14  1  0
 13 14  2  0
  5 15  2  0
  6 15  1  0
  9 16  1  0
  8 17  2  0
  8 18  1  0
M  END
$$$$
