7Z1Q_NIO_A_301
     RDKit          3D

 14 14  0  0  0  0  0  0  0  0999 V2000
   -0.6234    1.9044    0.9095 N   0  0  0  0  0  0  0  0  0  0  0  0
    0.1459    0.9169    1.4413 C   0  0  0  0  0  0  0  0  0  0  0  0
    0.8268    0.0180    0.6014 C   0  0  0  0  0  0  0  0  0  0  0  0
    0.6902    0.1688   -0.7881 C   0  0  0  0  0  0  0  0  0  0  0  0
   -0.1059    1.1914   -1.3074 C   0  0  0  0  0  0  0  0  0  0  0  0
   -0.7620    2.0587   -0.4335 C   0  0  0  0  0  0  0  0  0  0  0  0
    1.6674   -1.0614    1.1631 C   0  0  0  0  0  0  0  0  0  0  0  0
    1.7873   -1.1932    2.4114 O   0  0  0  0  0  0  0  0  0  0  0  0
    2.3349   -1.9431    0.3169 O   0  0  0  0  0  0  0  0  0  0  0  0
    0.2237    0.8364    2.5178 H   0  0  0  0  0  0  0  0  0  0  0  0
    1.1965   -0.5006   -1.4721 H   0  0  0  0  0  0  0  0  0  0  0  0
   -0.2133    1.3104   -2.3778 H   0  0  0  0  0  0  0  0  0  0  0  0
   -1.3819    2.8553   -0.8226 H   0  0  0  0  0  0  0  0  0  0  0  0
    2.9133   -2.6860    0.6910 H   0  0  0  0  0  0  0  0  0  0  0  0
  1  2  2  0
  2  3  1  0
  3  4  2  0
  4  5  1  0
  1  6  1  0
  5  6  2  0
  3  7  1  0
  7  8  2  0
  7  9  1  0
  2 10  1  0
  4 11  1  0
  5 12  1  0
  6 13  1  0
  9 14  1  0
M  END
