7OLI_8HG_B_301
     RDKit          3D

 20 22  0  0  0  0  0  0  0  0999 V2000
  -10.6391   14.3960    4.0897 O   0  0  0  0  0  0  0  0  0  0  0  0
  -10.9982   13.6054    3.1856 C   0  0  0  0  0  0  0  0  0  0  0  0
  -11.2173   14.0640    1.9499 N   0  0  0  0  0  0  0  0  0  0  0  0
  -11.6019   13.2518    0.9567 C   0  0  0  0  0  0  0  0  0  0  0  0
  -11.8415   13.7314   -0.3788 N   0  0  0  0  0  0  0  0  0  0  0  0
  -11.7783   11.9304    1.1905 N   0  0  0  0  0  0  0  0  0  0  0  0
  -11.5680   11.4161    2.4304 C   0  0  0  0  0  0  0  0  0  0  0  0
  -11.1691   12.2599    3.4600 C   0  0  0  0  0  0  0  0  0  0  0  0
  -11.0331   11.4958    4.5753 N   0  0  0  0  0  0  0  0  0  0  0  0
  -11.3405   10.2242    4.2337 C   0  0  0  0  0  0  0  0  0  0  0  0
  -11.3118    9.2684    5.0467 O   0  0  0  0  0  0  0  0  0  0  0  0
  -11.6627   10.1816    2.9378 N   0  0  0  0  0  0  0  0  0  0  0  0
  -12.0460    9.0232    2.2012 C   0  0  2  0  0  0  0  0  0  0  0  0
  -13.1457    8.4096    2.7633 O   0  0  0  0  0  0  0  0  0  0  0  0
  -10.9660    7.9591    2.1405 C   0  0  0  0  0  0  0  0  0  0  0  0
  -11.8531    6.8079    1.6458 C   0  0  2  0  0  0  0  0  0  0  0  0
  -12.2107    7.1378    0.3434 O   0  0  0  0  0  0  0  0  0  0  0  0
  -13.0431    7.0518    2.5493 C   0  0  1  0  0  0  0  0  0  0  0  0
  -12.7869    6.3393    3.8824 C   0  0  0  0  0  0  0  0  0  0  0  0
  -13.4196    5.1022    3.9415 O   0  0  0  0  0  0  0  0  0  0  0  0
  1  2  2  0
  2  3  1  0
  3  4  1  0
  4  5  1  0
  4  6  2  0
  6  7  1  0
  2  8  1  0
  7  8  2  0
  8  9  1  0
  9 10  1  0
 10 11  2  0
  7 12  1  0
 10 12  1  0
 13 12  1  1
 13 14  1  0
 15 13  1  6
 15 16  1  0
 16 17  1  6
 18 14  1  1
 16 18  1  0
 18 19  1  0
 19 20  1  6
M  END
$$$$
