
     RDKit          3D

 23 25  0  0  0  0  0  0  0  0999 V2000
  -25.7206   -1.6709   -8.1546 C   0  0  0  0  0  0  0  0  0  0  0  0
  -23.5564   -0.0718   -9.7204 C   0  0  0  0  0  0  0  0  0  0  0  0
  -22.9889    1.1237  -10.1791 C   0  0  0  0  0  0  0  0  0  0  0  0
  -23.7570    2.0652  -10.8810 C   0  0  0  0  0  0  0  0  0  0  0  0
  -23.1251    3.3656  -11.3276 C   0  0  0  0  0  0  0  0  0  0  0  0
  -22.5124    4.0452  -13.6412 C   0  0  0  0  0  0  0  0  0  0  0  0
  -21.0081    3.2093  -15.3799 C   0  0  0  0  0  0  0  0  0  0  0  0
  -19.3028    4.6946  -16.5123 C   0  0  0  0  0  0  0  0  0  0  0  0
  -19.0166    6.1472  -16.8157 C   0  0  0  0  0  0  0  0  0  0  0  0
  -17.7313    6.6789  -16.6686 C   0  0  0  0  0  0  0  0  0  0  0  0
  -17.5217    8.0138  -16.9789 C   0  0  0  0  0  0  0  0  0  0  0  0
  -19.7192    8.3098  -17.5729 C   0  0  0  0  0  0  0  0  0  0  0  0
  -20.0293    6.9888  -17.2857 C   0  0  0  0  0  0  0  0  0  0  0  0
  -21.8785    5.2863  -13.7502 C   0  0  0  0  0  0  0  0  0  0  0  0
  -25.1150    1.7920  -11.0889 C   0  0  0  0  0  0  0  0  0  0  0  0
  -24.9055   -0.3403   -9.9472 C   0  0  0  0  0  0  0  0  0  0  0  0
  -22.0329    3.0042  -14.4490 C   0  0  0  0  0  0  0  0  0  0  0  0
  -20.4087    4.4654  -15.5076 C   0  0  0  0  0  0  0  0  0  0  0  0
  -20.8536    5.5021  -14.6804 C   0  0  0  0  0  0  0  0  0  0  0  0
  -25.6794    0.5985  -10.6307 C   0  0  0  0  0  0  0  0  0  0  0  0
  -23.4918    3.7484  -12.6887 N   0  0  0  0  0  0  0  0  0  0  0  0
  -18.4874    8.8419  -17.4307 N   0  0  0  0  0  0  0  0  0  0  0  0
  -25.5810   -1.4625   -9.5538 O   0  0  0  0  0  0  0  0  0  0  0  0
  2  3  4  0
  3  4  4  0
  4  5  1  0
  8  9  1  0
  9 10  4  0
 10 11  4  0
 12 13  4  0
  9 13  4  0
  6 14  4  0
  4 15  4  0
  2 16  4  0
  7 17  4  0
  6 17  4  0
  8 18  1  0
  7 18  4  0
 18 19  4  0
 14 19  4  0
 15 20  4  0
 16 20  4  0
  6 21  1  0
  5 21  1  0
 11 22  4  0
 12 22  4  0
 16 23  1  0
  1 23  1  0
M  END
