
     RDKit          3D

 32 35  0  0  0  0  0  0  0  0999 V2000
   27.9792  109.5303   56.6658 C   0  0  0  0  0  0  0  0  0  0  0  0
   29.1888  109.4921   58.8520 C   0  0  0  0  0  0  0  0  0  0  0  0
   30.4039  109.4446   59.4240 C   0  0  0  0  0  0  0  0  0  0  0  0
   27.6540  109.5071   54.1500 C   0  0  0  0  0  0  0  0  0  0  0  0
   36.1484  111.3667   58.1064 C   0  0  0  0  0  0  0  0  0  0  0  0
   36.3044  106.2191   62.7141 C   0  0  0  0  0  0  0  0  0  0  0  0
   36.2387  105.7764   60.2657 C   0  0  0  0  0  0  0  0  0  0  0  0
   28.2309  109.0735   52.9458 C   0  0  0  0  0  0  0  0  0  0  0  0
   26.3154  109.9272   54.1354 C   0  0  0  0  0  0  0  0  0  0  0  0
   35.6921  105.0817   63.5610 C   0  0  0  0  0  0  0  0  0  0  0  0
   35.6484  108.6644   60.4503 C   0  0  0  0  0  0  0  0  0  0  0  0
   35.2294  109.3553   59.3193 C   0  0  0  0  0  0  0  0  0  0  0  0
   30.1926  109.4417   56.6263 C   0  0  0  0  0  0  0  0  0  0  0  0
   29.8315  109.4437   55.3619 N   0  0  0  0  0  0  0  0  0  0  0  0
   34.0732  109.1854   58.4723 C   0  0  0  0  0  0  0  0  0  0  0  0
   29.0912  109.4940   57.4665 N   0  0  0  0  0  0  0  0  0  0  0  0
   34.9380  107.6216   61.1708 C   0  0  0  0  0  0  0  0  0  0  0  0
   28.4522  109.4979   55.3694 C   0  0  0  0  0  0  0  0  0  0  0  0
   31.4762  109.3933   57.2368 C   0  0  0  0  0  0  0  0  0  0  0  0
   36.1568  110.3533   59.1368 N   0  0  0  0  0  0  0  0  0  0  0  0
   37.1932  110.2948   59.9963 N   0  0  0  0  0  0  0  0  0  0  0  0
   36.8576  109.3003   60.8185 C   0  0  0  0  0  0  0  0  0  0  0  0
   31.6046  109.4000   58.5842 C   0  0  0  0  0  0  0  0  0  0  0  0
   32.8702  109.3435   59.1369 N   0  0  0  0  0  0  0  0  0  0  0  0
   35.6553  106.4411   61.4167 N   0  0  0  0  0  0  0  0  0  0  0  0
   34.1869  108.8084   57.3123 O   0  0  0  0  0  0  0  0  0  0  0  0
   33.8079  107.8190   61.6169 O   0  0  0  0  0  0  0  0  0  0  0  0
   34.9424  105.5352   64.7516 N   0  0  0  0  0  0  0  0  0  0  0  0
   34.4931  104.3885   65.5536 C   0  0  0  0  0  0  0  0  0  0  0  0
   25.5727  109.9050   52.9491 C   0  0  0  0  0  0  0  0  0  0  0  0
   27.4885  109.0507   51.7599 C   0  0  0  0  0  0  0  0  0  0  0  0
   26.1578  109.4634   51.7643 C   0  0  0  0  0  0  0  0  0  0  0  0
  2  3  4  0
  4  8  4  0
  4  9  4  0
  6 10  1  0
 11 12  4  0
 13 14  4  0
 12 15  1  0
 13 16  4  0
  1 16  4  0
  2 16  4  0
 11 17  1  0
 14 18  4  0
  1 18  4  0
  4 18  1  0
 13 19  4  0
 12 20  4  0
  5 20  1  0
 20 21  4  0
 11 22  4  0
 21 22  4  0
 19 23  4  0
  3 23  4  0
 15 24  1  0
 23 24  1  0
 17 25  1  0
  7 25  1  0
  6 25  1  0
 15 26  2  0
 17 27  2  0
 10 28  1  0
 28 29  1  0
  9 30  4  0
  8 31  4  0
 30 32  4  0
 31 32  4  0
M  END
