7XG5_PLP_B_401
     RDKit          3D

 16 16  0  0  0  0  0  0  0  0999 V2000
  -36.8916  -43.0297   25.5715 N   0  0  0  0  0  0  0  0  0  0  0  0
  -38.1198  -42.7342   26.0046 C   0  0  0  0  0  0  0  0  0  0  0  0
  -39.0744  -43.8552   26.2941 C   0  0  0  0  0  0  0  0  0  0  0  0
  -38.5076  -41.3922   26.1802 C   0  0  0  0  0  0  0  0  0  0  0  0
  -39.7597  -41.1197   26.6264 O   0  0  0  0  0  0  0  0  0  0  0  0
  -37.5853  -40.3707   25.8898 C   0  0  0  0  0  0  0  0  0  0  0  0
  -37.9689  -38.9688   26.0537 C   0  0  0  0  0  0  0  0  0  0  0  0
  -39.0497  -38.5923   26.4464 O   0  0  0  0  0  0  0  0  0  0  0  0
  -36.3090  -40.7149   25.4282 C   0  0  0  0  0  0  0  0  0  0  0  0
  -36.0082  -42.0423   25.2856 C   0  0  0  0  0  0  0  0  0  0  0  0
  -35.2956  -39.6484   25.1040 C   0  0  0  0  0  0  0  0  0  0  0  0
  -35.1556  -39.5855   23.6484 O   0  0  0  0  0  0  0  0  0  0  0  0
  -34.7958  -38.1953   22.8988 P   0  0  2  0  0  0  0  0  0  0  0  0
  -35.2922  -37.0747   23.7995 O   0  0  0  0  0  0  0  0  0  0  0  0
  -35.5137  -38.2782   21.5908 O   0  0  0  0  0  0  0  0  0  0  0  0
  -33.2468  -38.1333   22.7785 O   0  0  0  0  0  0  0  0  0  0  0  0
  1  2  2  0
  2  3  1  0
  2  4  1  0
  4  5  1  0
  4  6  2  0
  6  7  1  0
  7  8  2  0
  6  9  1  0
  1 10  1  0
  9 10  2  0
  9 11  1  0
 11 12  1  0
 12 13  1  0
 13 14  2  0
 13 15  1  6
 13 16  1  0
M  END
