7LCU_XTA_A_605
     RDKit          3D

 39 43  0  0  0  0  0  0  0  0999 V2000
  -63.9152  -37.9785   97.8054 C   0  0  0  0  0  0  0  0  0  0  0  0
  -63.7253  -37.6096   99.1308 C   0  0  0  0  0  0  0  0  0  0  0  0
  -65.8224  -36.5531   99.5063 C   0  0  0  0  0  0  0  0  0  0  0  0
  -66.9892  -36.3784  100.2443 C   0  0  0  0  0  0  0  0  0  0  0  0
  -68.0060  -35.6197   99.7105 C   0  0  0  0  0  0  0  0  0  0  0  0
  -69.2971  -35.3720  100.4143 C   0  0  0  0  0  0  0  0  0  0  0  0
  -71.1116  -33.8053  100.1498 C   0  0  0  0  0  0  0  0  0  0  0  0
  -71.4474  -32.3295  100.2275 C   0  0  0  0  0  0  0  0  0  0  0  0
  -70.8207  -31.6781  101.4414 C   0  0  2  0  0  0  0  0  0  0  0  0
  -70.8830  -30.1815  101.1874 C   0  0  0  0  0  0  0  0  0  0  0  0
  -71.8859  -29.5962  102.0805 C   0  0  0  0  0  0  0  0  0  0  0  0
  -69.4107  -32.1283  101.6361 C   0  0  0  0  0  0  0  0  0  0  0  0
  -68.8644  -32.9926  100.5503 C   0  0  0  0  0  0  0  0  0  0  0  0
  -67.8018  -35.0635   98.4425 C   0  0  0  0  0  0  0  0  0  0  0  0
  -66.6530  -35.2486   97.7417 C   0  0  0  0  0  0  0  0  0  0  0  0
  -66.4331  -34.6707   96.4207 C   0  0  0  0  0  0  0  0  0  0  0  0
  -67.3339  -33.8548   95.7836 C   0  0  0  0  0  0  0  0  0  0  0  0
  -67.0801  -33.3279   94.5248 C   0  0  0  0  0  0  0  0  0  0  0  0
  -65.9076  -33.6075   93.8680 C   0  0  0  0  0  0  0  0  0  0  0  0
  -58.7930  -41.9977   96.3326 C   0  0  0  0  0  0  0  0  0  0  0  0
  -60.0643  -40.3176   95.1832 C   0  0  0  0  0  0  0  0  0  0  0  0
  -60.5831  -38.8994   95.2729 C   0  0  0  0  0  0  0  0  0  0  0  0
  -59.1085  -38.4263   97.1992 C   0  0  0  0  0  0  0  0  0  0  0  0
  -58.3456  -39.6518   96.7274 C   0  0  0  0  0  0  0  0  0  0  0  0
  -61.5860  -38.2052   97.4867 C   0  0  0  0  0  0  0  0  0  0  0  0
  -64.9894  -34.4239   94.4887 C   0  0  0  0  0  0  0  0  0  0  0  0
  -65.2528  -34.9389   95.7341 C   0  0  0  0  0  0  0  0  0  0  0  0
  -62.4153  -37.5491   99.6076 C   0  0  0  0  0  0  0  0  0  0  0  0
  -59.2897  -40.6601   96.3591 N   0  0  0  0  0  0  0  0  0  0  0  0
  -60.4599  -38.5030   96.6718 N   0  0  0  0  0  0  0  0  0  0  0  0
  -62.8470  -38.2663   97.0182 N   0  0  0  0  0  0  0  0  0  0  0  0
  -69.7083  -34.0453  100.0980 N   0  0  0  0  0  0  0  0  0  0  0  0
  -65.6842  -35.9956   98.2973 N   0  0  0  0  0  0  0  0  0  0  0  0
  -61.3911  -37.8502   98.7645 N   0  0  0  0  0  0  0  0  0  0  0  0
  -64.7679  -37.3026   99.9873 O   0  0  0  0  0  0  0  0  0  0  0  0
  -72.0006  -28.2013  102.1253 O   0  0  0  0  0  0  0  0  0  0  0  0
  -72.6660  -30.2374  102.8226 O   0  0  0  0  0  0  0  0  0  0  0  0
  -68.2443  -32.2783   93.7135 Cl  0  0  0  0  0  0  0  0  0  0  0  0
  -63.4726  -34.7956   93.6585 Cl  0  0  0  0  0  0  0  0  0  0  0  0
  1  2  2  0
  3  4  2  0
  4  5  1  0
  5  6  1  0
  8  7  1  6
  8  9  1  0
  9 10  1  6
 10 11  1  6
  9 12  1  0
 12 13  1  6
  5 14  2  0
 14 15  1  0
 15 16  1  0
 16 17  2  0
 17 18  1  0
 18 19  2  0
 21 22  1  0
 23 24  1  0
 19 26  1  0
 26 27  2  0
 16 27  1  0
  2 28  1  0
 21 29  1  6
 24 29  1  6
 20 29  1  1
 25 30  1  0
 22 30  1  6
 23 30  1  1
  1 31  1  0
 25 31  2  0
  7 32  1  1
 13 32  1  1
  6 32  1  6
 15 33  2  0
  3 33  1  0
 28 34  2  0
 25 34  1  0
  3 35  1  0
  2 35  1  0
 11 36  1  0
 11 37  2  0
 18 38  1  0
 26 39  1  0
M  END
$$$$
