6X8D_ARA_A_207
     RDKit          3D

 20 20  0  0  0  0  0  0  0  0999 V2000
   20.6461   -0.0160   72.8917 C   0  0  2  0  0  0  0  0  0  0  0  0
   21.9446   -0.4574   72.1696 C   0  0  1  0  0  0  0  0  0  0  0  0
   22.3911    0.5994   71.1261 C   0  0  2  0  0  0  0  0  0  0  0  0
   21.9997    2.0108   71.5974 C   0  0  2  0  0  0  0  0  0  0  0  0
   20.4800    2.0873   71.8985 C   0  0  1  0  0  0  0  0  0  0  0  0
   19.8965   -1.1395   73.2740 O   0  0  0  0  0  0  0  0  0  0  0  0
   22.9553   -0.6473   73.1269 O   0  0  0  0  0  0  0  0  0  0  0  0
   21.7818    0.3399   69.8859 O   0  0  0  0  0  0  0  0  0  0  0  0
   22.3425    2.9668   70.6271 O   0  0  0  0  0  0  0  0  0  0  0  0
   19.8661    0.8154   72.0501 O   0  0  0  0  0  0  0  0  0  0  0  0
   20.9057    0.5322   73.8286 H   0  0  0  0  0  0  0  0  0  0  0  0
   21.7569   -1.4227   71.6414 H   0  0  0  0  0  0  0  0  0  0  0  0
   23.4998    0.5645   71.0047 H   0  0  0  0  0  0  0  0  0  0  0  0
   22.5502    2.2311   72.5431 H   0  0  0  0  0  0  0  0  0  0  0  0
   20.3025    2.7017   72.8090 H   0  0  0  0  0  0  0  0  0  0  0  0
   19.9653    2.6058   71.0614 H   0  0  0  0  0  0  0  0  0  0  0  0
   20.3733   -1.9408   72.9324 H   0  0  0  0  0  0  0  0  0  0  0  0
   23.7648   -0.9474   72.6362 H   0  0  0  0  0  0  0  0  0  0  0  0
   22.1601   -0.5159   69.5532 H   0  0  0  0  0  0  0  0  0  0  0  0
   23.3319    2.9484   70.5438 H   0  0  0  0  0  0  0  0  0  0  0  0
  1  2  1  0
  2  3  1  0
  3  4  1  0
  4  5  1  0
  1  6  1  0
  2  7  1  0
  3  8  1  0
  4  9  1  0
  1 10  1  0
  5 10  1  0
  1 11  1  1
  2 12  1  6
  3 13  1  6
  4 14  1  1
  5 15  1  1
  5 16  1  0
  6 17  1  0
  7 18  1  0
  8 19  1  0
  9 20  1  0
M  END
