6YT6_PKE_B_701
     RDKit          3D

 31 34  0  0  0  0  0  0  0  0999 V2000
    0.3480    1.0350   -2.3864 C   0  0  0  0  0  0  0  0  0  0  0  0
    2.2739    0.3484    1.2139 C   0  0  0  0  0  0  0  0  0  0  0  0
    3.3783    0.6373    2.2010 C   0  0  0  0  0  0  0  0  0  0  0  0
    3.6918    1.9290    2.6130 C   0  0  0  0  0  0  0  0  0  0  0  0
    4.7254    2.1436    3.5089 C   0  0  0  0  0  0  0  0  0  0  0  0
    5.4268    1.0566    3.9833 C   0  0  0  0  0  0  0  0  0  0  0  0
    4.1669   -0.3869    2.7554 C   0  0  0  0  0  0  0  0  0  0  0  0
    4.3180   -3.8046    4.0868 C   0  0  0  0  0  0  0  0  0  0  0  0
   -0.8971   -0.5405   -3.9613 C   0  0  0  0  0  0  0  0  0  0  0  0
   -1.9274   -1.5931   -5.8754 C   0  0  0  0  0  0  0  0  0  0  0  0
   -3.1615   -1.3359   -3.8079 C   0  0  0  0  0  0  0  0  0  0  0  0
    0.8410    0.7351   -1.1734 N   0  0  0  0  0  0  0  0  0  0  0  0
   -0.0728    2.2392   -2.8002 N   0  0  0  0  0  0  0  0  0  0  0  0
    0.0098    3.2187   -1.8936 C   0  0  0  0  0  0  0  0  0  0  0  0
    0.4949    3.0390   -0.6177 C   0  0  0  0  0  0  0  0  0  0  0  0
    0.9084    1.7502   -0.2998 C   0  0  0  0  0  0  0  0  0  0  0  0
    1.4098    1.4806    0.9351 N   0  0  0  0  0  0  0  0  0  0  0  0
    0.2056    0.0692   -3.3355 N   0  0  0  0  0  0  0  0  0  0  0  0
    5.1677   -0.2085    3.6268 N   0  0  0  0  0  0  0  0  0  0  0  0
    3.8952   -1.7443    2.3553 N   0  0  0  0  0  0  0  0  0  0  0  0
    3.1234   -2.7093    3.4194 S   0  0  1  0  0  0  0  0  0  0  0  0
    4.8797   -2.3666    1.4659 C   0  0  0  0  0  0  0  0  0  0  0  0
    2.1818   -3.4728    2.6674 O   0  0  0  0  0  0  0  0  0  0  0  0
    2.6482   -1.8648    4.4646 O   0  0  0  0  0  0  0  0  0  0  0  0
   -2.0655   -0.7186   -3.2239 C   0  0  0  0  0  0  0  0  0  0  0  0
   -0.8360   -0.9762   -5.2841 C   0  0  0  0  0  0  0  0  0  0  0  0
   -3.0822   -1.7681   -5.1254 C   0  0  0  0  0  0  0  0  0  0  0  0
   -4.5262   -1.6698   -3.2878 C   0  0  0  0  0  0  0  0  0  0  0  0
   -5.1748   -2.3779   -4.4570 C   0  0  0  0  0  0  0  0  0  0  0  0
   -4.2855   -2.3792   -5.4832 N   0  0  0  0  0  0  0  0  0  0  0  0
   -6.2889   -2.8858   -4.4832 O   0  0  0  0  0  0  0  0  0  0  0  0
  2  3  1  0
  3  4  2  0
  4  5  1  0
  5  6  2  0
  3  7  1  0
  1 12  2  0
  1 13  1  0
 13 14  2  0
 14 15  1  0
 15 16  2  0
 12 16  1  0
 16 17  1  0
  2 17  1  0
  1 18  1  0
  9 18  1  0
  6 19  1  0
  7 19  2  0
  7 20  1  0
 20 21  1  0
 21  8  1  1
 20 22  1  0
 21 23  2  0
 21 24  2  0
  9 25  2  0
 11 25  1  0
  9 26  1  0
 10 26  2  0
 11 27  2  0
 10 27  1  0
 11 28  1  0
 28 29  1  0
 27 30  1  0
 29 30  1  0
 29 31  2  0
M  END
