7R6J_2I7_B_901
     RDKit          3D

 33 36  0  0  0  0  0  0  0  0999 V2000
  -11.6043  -36.2299  -42.7198 N   0  0  0  0  0  0  0  0  0  0  0  0
   -7.3404  -43.5772  -36.3058 N   0  0  0  0  0  0  0  0  0  0  0  0
  -11.0305  -36.6450  -41.4444 C   0  0  0  0  0  0  0  0  0  0  0  0
  -12.0819  -34.9200  -42.6197 C   0  0  2  0  0  0  0  0  0  0  0  0
  -13.1827  -34.4807  -43.5128 C   0  0  0  0  0  0  0  0  0  0  0  0
  -10.7692  -36.6821  -43.7417 C   0  0  0  0  0  0  0  0  0  0  0  0
  -10.5676  -38.1175  -43.9441 C   0  0  0  0  0  0  0  0  0  0  0  0
   -9.6359  -40.2081  -43.1312 C   0  0  0  0  0  0  0  0  0  0  0  0
   -7.0969  -39.4883  -39.0451 C   0  0  0  0  0  0  0  0  0  0  0  0
   -5.7333  -38.8675  -37.0504 C   0  0  0  0  0  0  0  0  0  0  0  0
   -7.6323  -41.9487  -38.0727 C   0  0  0  0  0  0  0  0  0  0  0  0
   -8.3148  -45.7310  -36.3260 C   0  0  0  0  0  0  0  0  0  0  0  0
   -8.8748  -45.4089  -37.5460 C   0  0  0  0  0  0  0  0  0  0  0  0
   -8.1628  -41.6182  -39.3017 C   0  0  0  0  0  0  0  0  0  0  0  0
  -10.8319  -40.1972  -45.1589 C   0  0  0  0  0  0  0  0  0  0  0  0
  -10.9868  -33.8658  -42.4947 C   0  0  2  0  0  0  0  0  0  0  0  0
   -8.8604  -40.8813  -42.0617 C   0  0  0  0  0  0  0  0  0  0  0  0
   -7.8837  -40.3594  -39.7897 C   0  0  0  0  0  0  0  0  0  0  0  0
   -6.5709  -39.8241  -37.8201 C   0  0  0  0  0  0  0  0  0  0  0  0
   -6.8498  -41.0794  -37.3345 C   0  0  0  0  0  0  0  0  0  0  0  0
   -7.8872  -43.2638  -37.4961 C   0  0  0  0  0  0  0  0  0  0  0  0
   -7.5323  -44.7724  -35.7126 C   0  0  0  0  0  0  0  0  0  0  0  0
   -9.9762  -34.3384  -41.4778 C   0  0  1  0  0  0  0  0  0  0  0  0
  -10.1238  -40.8977  -44.2139 C   0  0  0  0  0  0  0  0  0  0  0  0
  -11.0400  -38.8465  -45.0155 C   0  0  0  0  0  0  0  0  0  0  0  0
  -10.4240  -35.5180  -40.6870 C   0  0  1  0  0  0  0  0  0  0  0  0
   -9.8480  -38.8506  -42.9917 C   0  0  0  0  0  0  0  0  0  0  0  0
   -8.4008  -39.9558  -41.0521 N   0  0  0  0  0  0  0  0  0  0  0  0
   -8.6524  -44.1882  -38.1061 N   0  0  0  0  0  0  0  0  0  0  0  0
  -11.6657  -32.7182  -42.0214 O   0  0  0  0  0  0  0  0  0  0  0  0
   -8.6833  -34.4621  -42.0086 O   0  0  0  0  0  0  0  0  0  0  0  0
  -11.2503  -35.0855  -39.6256 O   0  0  0  0  0  0  0  0  0  0  0  0
  -12.8283  -34.7053  -44.8666 O   0  0  0  0  0  0  0  0  0  0  0  0
  1  3  1  0
  1  4  1  0
  4  5  1  6
  1  6  1  0
  6  7  1  0
 12 13  1  0
 11 14  2  0
  4 16  1  0
  8 17  1  0
 14 18  1  0
  9 18  2  0
  9 19  1  0
 10 19  1  0
 11 20  1  0
 19 20  2  0
  2 21  2  0
 11 21  1  0
 12 22  2  0
  2 22  1  0
 16 23  1  0
  8 24  1  0
 15 24  2  0
  7 25  2  0
 15 25  1  0
 23 26  1  0
  3 26  1  0
  7 27  1  0
  8 27  2  0
 17 28  1  0
 18 28  1  0
 13 29  2  0
 21 29  1  0
 16 30  1  1
 23 31  1  6
 26 32  1  1
  5 33  1  0
M  END
$$$$
