1TT1_KAI_A_998
     RDKit          3D

 30 30  0  0  0  0  0  0  0  0999 V2000
    3.1733   16.1322   15.8261 N   0  0  0  0  0  0  0  0  0  0  0  0
    1.9692   15.5250   15.2370 C   0  0  1  0  0  0  0  0  0  0  0  0
    2.8381   12.0627   13.9595 C   0  0  0  0  0  0  0  0  0  0  0  0
    1.6873   12.6996   16.0266 C   0  0  2  0  0  0  0  0  0  0  0  0
    4.3361   15.5950   15.1017 C   0  0  1  0  0  0  0  0  0  0  0  0
    3.8063   14.9710   13.8098 C   0  0  1  0  0  0  0  0  0  0  0  0
    4.7366   13.9674   13.0773 C   0  0  1  0  0  0  0  0  0  0  0  0
    2.4034   14.4947   14.1858 C   0  0  1  0  0  0  0  0  0  0  0  0
    5.2000   12.7886   13.8841 C   0  0  0  0  0  0  0  0  0  0  0  0
    2.3226   13.0562   14.7015 C   0  0  0  0  0  0  0  0  0  0  0  0
    5.3885   16.6452   14.8458 C   0  0  0  0  0  0  0  0  0  0  0  0
    5.7528   16.9140   13.6690 O   0  0  0  0  0  0  0  0  0  0  0  0
    6.4981   12.7527   14.3842 O   0  0  0  0  0  0  0  0  0  0  0  0
    4.4345   11.8040   14.0626 O   0  0  0  0  0  0  0  0  0  0  0  0
    5.9651   17.3183   15.9183 O   0  0  0  0  0  0  0  0  0  0  0  0
    3.1058   17.1710   15.7072 H   0  0  0  0  0  0  0  0  0  0  0  0
    1.3390   15.0785   16.0355 H   0  0  0  0  0  0  0  0  0  0  0  0
    1.3528   16.3108   14.7416 H   0  0  0  0  0  0  0  0  0  0  0  0
    2.7968   11.0328   14.3022 H   0  0  0  0  0  0  0  0  0  0  0  0
    3.3157   12.2629   13.0053 H   0  0  0  0  0  0  0  0  0  0  0  0
    1.9757   13.4401   16.8012 H   0  0  0  0  0  0  0  0  0  0  0  0
    2.0372   11.6955   16.3466 H   0  0  0  0  0  0  0  0  0  0  0  0
    0.5825   12.6757   15.9739 H   0  0  0  0  0  0  0  0  0  0  0  0
    4.7837   14.8122   15.7458 H   0  0  0  0  0  0  0  0  0  0  0  0
    3.6453   15.8022   13.0826 H   0  0  0  0  0  0  0  0  0  0  0  0
    4.2279   13.6107   12.1554 H   0  0  0  0  0  0  0  0  0  0  0  0
    5.6439   14.5152   12.7424 H   0  0  0  0  0  0  0  0  0  0  0  0
    1.7357   14.5991   13.2990 H   0  0  0  0  0  0  0  0  0  0  0  0
    6.6777   12.8806   15.3728 H   0  0  0  0  0  0  0  0  0  0  0  0
    6.9530   17.5425   15.9205 H   0  0  0  0  0  0  0  0  0  0  0  0
  1  2  1  0
  1  5  1  0
  5  6  1  0
  6  7  1  0
  2  8  1  0
  6  8  1  0
  7  9  1  0
  3 10  2  0
  4 10  1  0
  8 10  1  0
  5 11  1  0
 11 12  2  0
  9 13  1  0
  9 14  2  0
 11 15  1  0
  1 16  1  0
  2 17  1  1
  2 18  1  0
  3 19  1  0
  3 20  1  0
  4 21  1  1
  4 22  1  0
  4 23  1  0
  5 24  1  1
  6 25  1  6
  7 26  1  6
  7 27  1  0
  8 28  1  6
 13 29  1  0
 15 30  1  0
M  END
