1V0P_PVB_A_1287
     RDKit          3D

 55 57  0  0  0  0  0  0  0  0999 V2000
   25.0498   -0.5044   33.1871 N   0  0  0  0  0  0  0  0  0  0  0  0
   26.7898   -5.4213   34.1409 C   0  0  2  0  0  0  0  0  0  0  0  0
   26.3897   -4.0874   34.6571 N   0  0  0  0  0  4  0  0  0  0  0  0
   25.9647   -2.9679   34.0078 C   0  0  0  0  0  0  0  0  0  0  0  0
   25.6398   -2.7549   32.6058 N   0  0  0  0  0  0  0  0  0  0  0  0
   25.2271   -1.5065   32.2342 C   0  0  0  0  0  0  0  0  0  0  0  0
   25.3155   -0.6505   34.5231 C   0  0  0  0  0  0  0  0  0  0  0  0
   25.8060   -1.8857   34.9949 C   0  0  0  0  0  0  0  0  0  0  0  0
   26.1506   -2.4287   36.1940 N   0  0  0  0  0  0  0  0  0  0  0  0
   26.5009   -3.7224   35.9698 C   0  0  0  0  0  0  0  0  0  0  0  0
   25.1391    0.3689   35.4329 N   0  0  0  0  0  0  0  0  0  0  0  0
   24.2207    0.3530   36.4419 C   0  0  0  0  0  0  0  0  0  0  0  0
   24.2738   -0.6686   37.4120 C   0  0  0  0  0  0  0  0  0  0  0  0
   23.3804   -0.6776   38.4734 C   0  0  0  0  0  0  0  0  0  0  0  0
   22.4251    0.3504   38.5856 C   0  0  0  0  0  0  0  0  0  0  0  0
   22.3983    1.4447   37.5744 C   0  0  0  0  0  0  0  0  0  0  0  0
   21.4073    2.5969   37.6574 Cl  0  0  0  0  0  0  0  0  0  0  0  0
   23.3071    1.3831   36.5302 C   0  0  0  0  0  0  0  0  0  0  0  0
   21.4628    0.3595   39.7254 C   0  0  0  0  0  0  0  0  0  0  0  0
   21.5913   -0.4629   40.6476 O   0  0  0  0  0  0  0  0  0  0  0  0
   20.5419    1.1897   39.7573 O   0  0  0  0  0  0  0  0  0  0  0  0
   24.9087   -1.2407   30.9292 N   0  0  0  0  0  0  0  0  0  0  0  0
   25.3470    0.0530   30.4061 C   0  0  1  0  0  0  0  0  0  0  0  0
   26.6053    0.6405   31.0782 C   0  0  1  0  0  0  0  0  0  0  0  0
   26.2992    1.4780   32.3452 C   0  0  0  0  0  0  0  0  0  0  0  0
   27.7919   -0.3087   31.1878 C   0  0  0  0  0  0  0  0  0  0  0  0
   25.2278    0.2330   28.8815 C   0  0  0  0  0  0  0  0  0  0  0  0
   26.4325    0.7890   28.4254 O   0  0  0  0  0  0  0  0  0  0  0  0
   26.7609   -5.3026   32.6279 C   0  0  0  0  0  0  0  0  0  0  0  0
   25.8972   -6.5891   34.5398 C   0  0  0  0  0  0  0  0  0  0  0  0
   27.7455   -5.6503   34.5641 H   0  0  0  0  0  0  0  0  0  0  0  0
   26.8180   -4.3633   36.7139 H   0  0  0  0  0  0  0  0  0  0  0  0
   25.7150    1.1631   35.3493 H   0  0  0  0  0  0  0  0  0  0  0  0
   24.9820   -1.4149   37.3320 H   0  0  0  0  0  0  0  0  0  0  0  0
   23.4159   -1.4327   39.1760 H   0  0  0  0  0  0  0  0  0  0  0  0
   23.3004    2.1194   35.8071 H   0  0  0  0  0  0  0  0  0  0  0  0
   22.2874   -1.0898   40.6226 H   0  0  0  0  0  0  0  0  0  0  0  0
   24.4124   -1.8846   30.3739 H   0  0  0  0  0  0  0  0  0  0  0  0
   24.5864    0.7237   30.7477 H   0  0  0  0  0  0  0  0  0  0  0  0
   26.9687    1.3592   30.3737 H   0  0  0  0  0  0  0  0  0  0  0  0
   25.9254    0.8361   33.1153 H   0  0  0  0  0  0  0  0  0  0  0  0
   27.1956    1.9551   32.6826 H   0  0  0  0  0  0  0  0  0  0  0  0
   25.5653    2.2212   32.1129 H   0  0  0  0  0  0  0  0  0  0  0  0
   27.5584   -1.0935   31.8766 H   0  0  0  0  0  0  0  0  0  0  0  0
   28.0026   -0.7288   30.2265 H   0  0  0  0  0  0  0  0  0  0  0  0
   28.6482    0.2295   31.5372 H   0  0  0  0  0  0  0  0  0  0  0  0
   25.0633   -0.7151   28.4137 H   0  0  0  0  0  0  0  0  0  0  0  0
   24.4040    0.8721   28.6414 H   0  0  0  0  0  0  0  0  0  0  0  0
   27.1675    0.1976   28.6511 H   0  0  0  0  0  0  0  0  0  0  0  0
   25.7663   -5.0732   32.3071 H   0  0  0  0  0  0  0  0  0  0  0  0
   27.4243   -4.5222   32.3187 H   0  0  0  0  0  0  0  0  0  0  0  0
   27.0717   -6.2288   32.1915 H   0  0  0  0  0  0  0  0  0  0  0  0
   24.9125   -6.4346   34.1505 H   0  0  0  0  0  0  0  0  0  0  0  0
   26.2994   -7.4975   34.1423 H   0  0  0  0  0  0  0  0  0  0  0  0
   25.8526   -6.6557   35.6068 H   0  0  0  0  0  0  0  0  0  0  0  0
  2  3  1  0
  3  4  4  0
  4  5  4  0
  1  6  4  0
  5  6  4  0
  1  7  4  0
  4  8  4  0
  7  8  4  0
  8  9  4  0
  3 10  4  0
  9 10  4  0
  7 11  1  0
 11 12  1  0
 12 13  4  0
 13 14  4  0
 14 15  4  0
 15 16  4  0
 16 17  1  0
 12 18  4  0
 16 18  4  0
 15 19  1  0
 19 20  1  0
 19 21  2  0
  6 22  1  0
 22 23  1  0
 23 24  1  0
 24 25  1  0
 24 26  1  0
 23 27  1  0
 27 28  1  0
  2 29  1  0
  2 30  1  0
  2 31  1  6
 10 32  1  0
 11 33  1  0
 13 34  1  0
 14 35  1  0
 18 36  1  0
 20 37  1  0
 22 38  1  0
 23 39  1  6
 24 40  1  1
 25 41  1  0
 25 42  1  0
 25 43  1  0
 26 44  1  0
 26 45  1  0
 26 46  1  0
 27 47  1  0
 27 48  1  0
 28 49  1  0
 29 50  1  0
 29 51  1  0
 29 52  1  0
 30 53  1  0
 30 54  1  0
 30 55  1  0
M  CHG  1   3   1
M  END
