7PA4_C_A_606
     RDKit          3D

 21 22  0  0  0  0  0  0  0  0999 V2000
    6.4560   13.5740   37.7690 O   0  0  0  0  0  0  0  0  0  0  0  0
    7.5790   12.5810   38.0420 P   0  0  0  0  0  0  0  0  0  0  0  0
    7.8550   12.3210   39.5170 O   0  0  0  0  0  0  0  0  0  0  0  0
    7.5260   11.3070   37.2450 O   0  0  0  0  0  0  0  0  0  0  0  0
    8.8770   13.2670   37.3760 O   0  0  0  0  0  0  0  0  0  0  0  0
    9.3860   14.5130   37.8530 C   0  0  0  0  0  0  0  0  0  0  0  0
   10.8880   14.4930   37.7110 C   0  0  1  0  0  0  0  0  0  0  0  0
   11.2460   14.5650   36.3160 O   0  0  0  0  0  0  0  0  0  0  0  0
   11.6300   15.6850   38.2890 C   0  0  1  0  0  0  0  0  0  0  0  0
   11.7140   15.6070   39.7130 O   0  0  0  0  0  0  0  0  0  0  0  0
   12.9840   15.6010   37.5740 C   0  0  1  0  0  0  0  0  0  0  0  0
   13.8400   14.6830   38.2230 O   0  0  0  0  0  0  0  0  0  0  0  0
   12.5680   15.0590   36.2000 C   0  0  2  0  0  0  0  0  0  0  0  0
   12.6380   16.0270   35.1000 N   0  0  0  0  0  0  0  0  0  0  0  0
   13.8420   16.1340   34.3790 C   0  0  0  0  0  0  0  0  0  0  0  0
   14.7930   15.3990   34.6740 O   0  0  0  0  0  0  0  0  0  0  0  0
   13.9180   16.9960   33.3530 N   0  0  0  0  0  0  0  0  0  0  0  0
   12.8930   17.7980   33.0750 C   0  0  0  0  0  0  0  0  0  0  0  0
   13.0240   18.6180   32.0410 N   0  0  0  0  0  0  0  0  0  0  0  0
   11.6540   17.7220   33.7910 C   0  0  0  0  0  0  0  0  0  0  0  0
   11.5820   16.8510   34.8050 C   0  0  0  0  0  0  0  0  0  0  0  0
  1  2  1  0
  2  3  2  0
  2  4  1  0
  2  5  1  0
  5  6  1  0
  7  6  1  6
  7  8  1  0
  7  9  1  0
  9 10  1  1
  9 11  1  0
 11 12  1  1
  8 13  1  0
 11 13  1  0
 13 14  1  6
 14 15  1  0
 15 16  2  0
 15 17  1  0
 17 18  2  0
 18 19  1  0
 18 20  1  0
 14 21  1  0
 20 21  2  0
M  END
$$$$
