7MMH_ZJY_A_1202
     RDKit          3D

104110  0  0  0  0  0  0  0  0999 V2000
    2.0368   -0.4486   -1.6032 C   0  0  0  0  0  0  0  0  0  0  0  0
    1.5247    5.5209   -1.8985 C   0  0  0  0  0  0  0  0  0  0  0  0
    1.7454    0.1536    3.9471 C   0  0  0  0  0  0  0  0  0  0  0  0
    1.7697    0.0698    6.7010 C   0  0  0  0  0  0  0  0  0  0  0  0
    2.8999   -0.2390    4.6423 C   0  0  0  0  0  0  0  0  0  0  0  0
   -0.5313    0.8372    8.1191 C   0  0  0  0  0  0  0  0  0  0  0  0
    0.7717   -1.6491    0.2448 C   0  0  1  0  0  0  0  0  0  0  0  0
    0.0647   -1.1667    1.5146 C   0  0  0  0  0  0  0  0  0  0  0  0
    0.5836    0.2554    1.7416 C   0  0  2  0  0  0  0  0  0  0  0  0
    0.9593    0.7582    0.3522 C   0  0  0  0  0  0  0  0  0  0  0  0
   -0.1542   -2.4320   -0.6442 C   0  0  0  0  0  0  0  0  0  0  0  0
   -0.8867   -4.6520   -1.6125 C   0  0  2  0  0  0  0  0  0  0  0  0
    1.8072    0.5717   -2.6961 C   0  0  2  0  0  0  0  0  0  0  0  0
    1.5932    3.0783   -2.2914 C   0  0  0  0  0  0  0  0  0  0  0  0
    2.4465    0.1760   -4.0462 C   0  0  0  0  0  0  0  0  0  0  0  0
    1.8147   -1.0796   -4.6772 C   0  0  0  0  0  0  0  0  0  0  0  0
    0.6125    0.4702    6.0045 C   0  0  0  0  0  0  0  0  0  0  0  0
   -0.5317    0.8535    6.7095 C   0  0  0  0  0  0  0  0  0  0  0  0
    0.6210    0.4173    8.8011 C   0  0  0  0  0  0  0  0  0  0  0  0
    1.7689    0.0367    8.0976 C   0  0  0  0  0  0  0  0  0  0  0  0
   -2.8443    1.7686    8.3081 C   0  0  0  0  0  0  0  0  0  0  0  0
    4.1370   -0.6429    3.9061 C   0  0  0  0  0  0  0  0  0  0  0  0
   -2.3898   -4.6835   -1.4056 C   0  0  0  0  0  0  0  0  0  0  0  0
   -4.7829   -2.0504   -0.8498 C   0  0  0  0  0  0  0  0  0  0  0  0
   -4.6974   -2.0140   -2.3690 C   0  0  0  0  0  0  0  0  0  0  0  0
   -6.0389   -1.7995   -1.6701 C   0  0  0  0  0  0  0  0  0  0  0  0
   -4.2034   -0.8516   -0.1001 C   0  0  0  0  0  0  0  0  0  0  0  0
   -0.2317   -4.8138   -2.9917 C   0  0  2  0  0  0  0  0  0  0  0  0
   -1.1340   -4.9901   -4.1902 C   0  0  0  0  0  0  0  0  0  0  0  0
   -1.5487   -3.9640   -4.9554 C   0  0  0  0  0  0  0  0  0  0  0  0
   -1.1413   -2.5291   -4.7389 C   0  0  0  0  0  0  0  0  0  0  0  0
   -0.2179   -2.0438   -5.8653 C   0  0  0  0  0  0  0  0  0  0  0  0
   -0.2469   -5.9828   -2.0012 C   0  0  0  0  0  0  0  0  0  0  0  0
    0.5358   -0.7608   -5.4727 C   0  0  0  0  0  0  0  0  0  0  0  0
    2.3888    6.6572   -1.3179 C   0  0  0  0  0  0  0  0  0  0  0  0
    3.9026    6.5316   -1.4588 C   0  0  0  0  0  0  0  0  0  0  0  0
    3.2373    6.3144   -0.0966 C   0  0  0  0  0  0  0  0  0  0  0  0
    1.8103    8.0828   -1.3856 C   0  0  0  0  0  0  0  0  0  0  0  0
    1.5869    8.4194   -2.7080 F   0  0  0  0  0  0  0  0  0  0  0  0
    2.6615    9.0216   -0.8277 F   0  0  0  0  0  0  0  0  0  0  0  0
    0.6082    8.1205   -0.7032 F   0  0  0  0  0  0  0  0  0  0  0  0
    1.2182   -0.4388   -0.4257 N   0  0  0  0  0  0  0  0  0  0  0  0
   -0.0952   -3.8640   -0.6649 N   0  0  0  0  0  0  0  0  0  0  0  0
    2.3525    1.8636   -2.2728 N   0  0  0  0  0  0  0  0  0  0  0  0
    0.6282    0.4952    4.6470 N   0  0  0  0  0  0  0  0  0  0  0  0
    2.8812   -0.2742    6.0014 N   0  0  0  0  0  0  0  0  0  0  0  0
   -2.9595   -4.1664   -0.1966 N   0  0  0  0  0  0  0  0  0  0  0  0
   -1.0110   -1.8224   -1.3412 O   0  0  0  0  0  0  0  0  0  0  0  0
    2.9495   -1.3130   -1.7113 O   0  0  0  0  0  0  0  0  0  0  0  0
    2.1974    4.2642   -1.8695 O   0  0  0  0  0  0  0  0  0  0  0  0
    0.3883    3.0757   -2.6654 O   0  0  0  0  0  0  0  0  0  0  0  0
    1.7597    0.2027    2.5503 O   0  0  0  0  0  0  0  0  0  0  0  0
   -1.6497    1.2337    8.8705 O   0  0  0  0  0  0  0  0  0  0  0  0
   -3.1478   -5.1869   -2.2818 O   0  0  0  0  0  0  0  0  0  0  0  0
   -5.4908   -4.6860   -0.7919 O   0  0  0  0  0  0  0  0  0  0  0  0
   -5.0254   -3.5923    1.3381 O   0  0  0  0  0  0  0  0  0  0  0  0
   -4.6176   -3.6726   -0.1053 S   0  0  0  0  0  6  0  0  0  0  0  0
    0.5837    5.4495   -1.3088 H   0  0  0  0  0  0  0  0  0  0  0  0
    1.2653    5.7652   -2.9504 H   0  0  0  0  0  0  0  0  0  0  0  0
    1.6591   -2.2625    0.5166 H   0  0  0  0  0  0  0  0  0  0  0  0
    0.2914   -1.8328    2.3765 H   0  0  0  0  0  0  0  0  0  0  0  0
   -1.0377   -1.1229    1.3732 H   0  0  0  0  0  0  0  0  0  0  0  0
   -0.1852    0.9159    2.1993 H   0  0  0  0  0  0  0  0  0  0  0  0
    0.1181    1.3223   -0.1068 H   0  0  0  0  0  0  0  0  0  0  0  0
    1.8619    1.4060    0.3996 H   0  0  0  0  0  0  0  0  0  0  0  0
    0.7089    0.6480   -2.8395 H   0  0  0  0  0  0  0  0  0  0  0  0
    2.3631    1.0285   -4.7600 H   0  0  0  0  0  0  0  0  0  0  0  0
    3.5341   -0.0032   -3.8907 H   0  0  0  0  0  0  0  0  0  0  0  0
    1.6106   -1.8431   -3.8980 H   0  0  0  0  0  0  0  0  0  0  0  0
    2.5529   -1.5311   -5.3753 H   0  0  0  0  0  0  0  0  0  0  0  0
   -1.4086    1.1668    6.1574 H   0  0  0  0  0  0  0  0  0  0  0  0
    0.6282    0.3941    9.8838 H   0  0  0  0  0  0  0  0  0  0  0  0
    2.6520   -0.2804    8.6417 H   0  0  0  0  0  0  0  0  0  0  0  0
   -2.6146    2.6914    7.7346 H   0  0  0  0  0  0  0  0  0  0  0  0
   -3.5510    2.0284    9.1245 H   0  0  0  0  0  0  0  0  0  0  0  0
   -3.3262    1.0166    7.6466 H   0  0  0  0  0  0  0  0  0  0  0  0
    4.4950    0.2050    3.2824 H   0  0  0  0  0  0  0  0  0  0  0  0
    4.9413   -0.9297    4.6171 H   0  0  0  0  0  0  0  0  0  0  0  0
    3.9176   -1.5134    3.2516 H   0  0  0  0  0  0  0  0  0  0  0  0
   -4.6219   -2.9925   -2.8830 H   0  0  0  0  0  0  0  0  0  0  0  0
   -4.2766   -1.0880   -2.8103 H   0  0  0  0  0  0  0  0  0  0  0  0
   -6.3936   -0.7497   -1.7098 H   0  0  0  0  0  0  0  0  0  0  0  0
   -6.7380   -2.6547   -1.7749 H   0  0  0  0  0  0  0  0  0  0  0  0
   -3.1222   -1.0205    0.0789 H   0  0  0  0  0  0  0  0  0  0  0  0
   -4.3283    0.0961   -0.6684 H   0  0  0  0  0  0  0  0  0  0  0  0
   -4.7153   -0.7458    0.8792 H   0  0  0  0  0  0  0  0  0  0  0  0
    0.7761   -4.3667   -3.1367 H   0  0  0  0  0  0  0  0  0  0  0  0
   -1.4696   -5.9901   -4.4502 H   0  0  0  0  0  0  0  0  0  0  0  0
   -2.1851   -4.1796   -5.8079 H   0  0  0  0  0  0  0  0  0  0  0  0
   -2.0604   -1.9040   -4.7174 H   0  0  0  0  0  0  0  0  0  0  0  0
   -0.6438   -2.3985   -3.7619 H   0  0  0  0  0  0  0  0  0  0  0  0
    0.5128   -2.8358   -6.1456 H   0  0  0  0  0  0  0  0  0  0  0  0
   -0.8410   -1.8371   -6.7617 H   0  0  0  0  0  0  0  0  0  0  0  0
   -0.9590   -6.8059   -2.2330 H   0  0  0  0  0  0  0  0  0  0  0  0
    0.7337   -6.1899   -1.5244 H   0  0  0  0  0  0  0  0  0  0  0  0
    0.8230   -0.2133   -6.3982 H   0  0  0  0  0  0  0  0  0  0  0  0
   -0.1407   -0.0955   -4.8933 H   0  0  0  0  0  0  0  0  0  0  0  0
    4.4767    7.4797   -1.5229 H   0  0  0  0  0  0  0  0  0  0  0  0
    4.2932    5.5971   -1.9145 H   0  0  0  0  0  0  0  0  0  0  0  0
    3.4298    7.1373    0.6239 H   0  0  0  0  0  0  0  0  0  0  0  0
    3.2352    5.2531    0.2312 H   0  0  0  0  0  0  0  0  0  0  0  0
    0.4771   -4.3582    0.0565 H   0  0  0  0  0  0  0  0  0  0  0  0
    3.3583    1.9147   -1.9908 H   0  0  0  0  0  0  0  0  0  0  0  0
   -2.3481   -3.9525    0.6223 H   0  0  0  0  0  0  0  0  0  0  0  0
  3  5  2  0
  7  8  1  0
  8  9  1  0
  9 10  1  0
  7 11  1  0
  1 13  1  0
 13 15  1  0
 15 16  1  0
  4 17  1  0
 17 18  1  0
  6 18  2  0
  6 19  1  0
  4 20  1  0
 19 20  2  0
  5 22  1  0
 12 23  1  6
 24 25  1  0
 24 26  1  0
 25 26  1  0
 24 27  1  0
 12 28  1  0
 28 29  1  0
 29 30  2  0
 30 31  1  0
 31 32  1  0
 28 33  1  0
 12 33  1  0
 32 34  1  0
 16 34  1  0
  2 35  1  0
 35 36  1  0
 36 37  1  0
 35 37  1  0
 35 38  1  0
 38 39  1  0
 38 40  1  0
 38 41  1  0
  1 42  1  0
  7 42  1  0
 10 42  1  0
 12 43  1  0
 11 43  1  0
 14 44  1  0
 13 44  1  0
  3 45  1  0
 17 45  2  0
  5 46  1  0
  4 46  2  0
 23 47  1  0
 11 48  2  0
  1 49  2  0
  2 50  1  0
 14 50  1  0
 14 51  2  0
  3 52  1  0
  9 52  1  0
  6 53  1  0
 21 53  1  0
 23 54  2  0
 55 57  2  0
 47 57  1  0
 56 57  2  0
 24 57  1  0
  2 58  1  0
  2 59  1  0
  7 60  1  1
  8 61  1  0
  8 62  1  0
  9 63  1  1
 10 64  1  0
 10 65  1  0
 13 66  1  6
 15 67  1  0
 15 68  1  0
 16 69  1  0
 16 70  1  0
 18 71  1  0
 19 72  1  0
 20 73  1  0
 21 74  1  0
 21 75  1  0
 21 76  1  0
 22 77  1  0
 22 78  1  0
 22 79  1  0
 25 80  1  0
 25 81  1  0
 26 82  1  0
 26 83  1  0
 27 84  1  0
 27 85  1  0
 27 86  1  0
 28 87  1  6
 29 88  1  0
 30 89  1  0
 31 90  1  0
 31 91  1  0
 32 92  1  0
 32 93  1  0
 33 94  1  0
 33 95  1  0
 34 96  1  0
 34 97  1  0
 36 98  1  0
 36 99  1  0
 37100  1  0
 37101  1  0
 43102  1  0
 44103  1  0
 47104  1  0
M  END
