7KRU_ATP_A_607
     RDKit          3D

 31 33  0  0  0  0  0  0  0  0999 V2000
   51.0876   52.4554  190.1519 P   0  0  2  0  0  5  0  0  0  0  0  0
   50.0557   53.5131  189.8283 O   0  0  0  0  0  0  0  0  0  0  0  0
   52.5994   53.1797  190.0885 O   0  0  0  0  0  0  0  0  0  0  0  0
   50.9578   51.2523  188.9604 O   0  0  0  0  0  0  0  0  0  0  0  0
   49.0821   51.9216  192.0257 P   0  0  1  0  0  5  0  0  0  0  0  0
   48.7529   53.0500  192.9748 O   0  0  0  0  0  0  0  0  0  0  0  0
   48.1861   52.0561  190.6093 O   0  0  0  0  0  0  0  0  0  0  0  0
   50.7322   51.8486  191.6839 O   0  0  0  0  0  0  0  0  0  0  0  0
   48.1380   49.3963  191.5878 P   0  0  2  0  0  5  0  0  0  0  0  0
   49.2148   49.1030  190.5909 O   0  0  0  0  0  0  0  0  0  0  0  0
   46.8256   50.1340  190.7980 O   0  0  0  0  0  0  0  0  0  0  0  0
   48.6458   50.4751  192.7849 O   0  0  0  0  0  0  0  0  0  0  0  0
   47.6423   47.9426  192.3049 O   0  0  0  0  0  0  0  0  0  0  0  0
   48.2645   47.8613  193.5491 C   0  0  0  0  0  0  0  0  0  0  0  0
   47.9360   46.5044  194.1501 C   0  0  1  0  0  0  0  0  0  0  0  0
   47.3246   45.6571  193.2408 O   0  0  0  0  0  0  0  0  0  0  0  0
   49.2681   45.8591  194.4660 C   0  0  1  0  0  0  0  0  0  0  0  0
   49.6481   46.2750  195.7368 O   0  0  0  0  0  0  0  0  0  0  0  0
   48.9084   44.3991  194.4219 C   0  0  1  0  0  0  0  0  0  0  0  0
   48.6379   43.9930  195.7345 O   0  0  0  0  0  0  0  0  0  0  0  0
   47.6937   44.3627  193.5606 C   0  0  2  0  0  0  0  0  0  0  0  0
   47.8697   43.5749  192.3716 N   0  0  0  0  0  0  0  0  0  0  0  0
   48.2719   44.1244  191.1906 C   0  0  0  0  0  0  0  0  0  0  0  0
   48.3513   43.1594  190.2558 N   0  0  0  0  0  0  0  0  0  0  0  0
   48.0075   42.0050  190.8179 C   0  0  0  0  0  0  0  0  0  0  0  0
   47.9120   40.7048  190.3338 C   0  0  0  0  0  0  0  0  0  0  0  0
   48.2174   40.4087  188.9706 N   0  0  0  0  0  0  0  0  0  0  0  0
   47.5256   39.7554  191.1926 N   0  0  0  0  0  0  0  0  0  0  0  0
   47.2307   40.0184  192.4938 C   0  0  0  0  0  0  0  0  0  0  0  0
   47.3155   41.2753  192.9908 N   0  0  0  0  0  0  0  0  0  0  0  0
   47.7011   42.2578  192.1562 C   0  0  0  0  0  0  0  0  0  0  0  0
  1  2  2  0
  1  3  1  1
  1  4  1  0
  5  6  2  0
  5  7  1  6
  1  8  1  0
  5  8  1  0
  9 10  2  0
  9 11  1  6
  5 12  1  0
  9 12  1  0
  9 13  1  0
 14 13  1  1
 15 14  1  0
 15 16  1  6
 15 17  1  0
 17 18  1  1
 17 19  1  0
 19 20  1  1
 16 21  1  0
 19 21  1  0
 21 22  1  6
 22 23  1  0
 23 24  2  0
 24 25  1  0
 25 26  2  0
 26 27  1  0
 26 28  1  0
 28 29  2  0
 29 30  1  0
 22 31  1  0
 25 31  1  0
 30 31  2  0
M  END
$$$$
