7ZU2_DHT_A_1001
     RDKit          3D

 51 54  0  0  0  0  0  0  0  0999 V2000
   -4.9430    3.5557    2.1888 C   0  0  0  0  0  0  0  0  0  0  0  0
   -6.3742    3.0400    2.4685 C   0  0  0  0  0  0  0  0  0  0  0  0
   -6.9823    2.2974    1.3124 C   0  0  0  0  0  0  0  0  0  0  0  0
   -7.6395    1.2886    1.5178 O   0  0  0  0  0  0  0  0  0  0  0  0
   -6.8491    2.8207   -0.0893 C   0  0  0  0  0  0  0  0  0  0  0  0
   -5.8387    3.9842   -0.1636 C   0  0  2  0  0  0  0  0  0  0  0  0
   -5.5418    4.3334   -1.6356 C   0  0  0  0  0  0  0  0  0  0  0  0
   -4.5987    5.5317   -1.7422 C   0  0  0  0  0  0  0  0  0  0  0  0
   -3.2789    5.2671   -0.9958 C   0  0  2  0  0  0  0  0  0  0  0  0
   -3.5670    4.9337    0.5072 C   0  0  1  0  0  0  0  0  0  0  0  0
   -4.5413    3.7030    0.6761 C   0  0  1  0  0  0  0  0  0  0  0  0
   -2.2549    4.8330    1.3535 C   0  0  0  0  0  0  0  0  0  0  0  0
   -1.3155    6.0478    1.1621 C   0  0  0  0  0  0  0  0  0  0  0  0
   -1.0245    6.2926   -0.3351 C   0  0  1  0  0  0  0  0  0  0  0  0
   -2.3660    6.5112   -1.0452 C   0  0  1  0  0  0  0  0  0  0  0  0
   -1.9927    7.1098   -2.3950 C   0  0  0  0  0  0  0  0  0  0  0  0
   -0.7477    7.9633   -2.0917 C   0  0  0  0  0  0  0  0  0  0  0  0
   -0.3256    7.6337   -0.6437 C   0  0  2  0  0  0  0  0  0  0  0  0
    1.0729    7.5628   -0.5343 O   0  0  0  0  0  0  0  0  0  0  0  0
   -0.1798    5.1155   -0.9227 C   0  0  0  0  0  0  0  0  0  0  0  0
   -3.8563    2.3792    0.2172 C   0  0  0  0  0  0  0  0  0  0  0  0
   -4.8638    4.5385    2.7036 H   0  0  0  0  0  0  0  0  0  0  0  0
   -4.2181    2.8939    2.7126 H   0  0  0  0  0  0  0  0  0  0  0  0
   -7.0356    3.9050    2.6929 H   0  0  0  0  0  0  0  0  0  0  0  0
   -6.3627    2.3937    3.3735 H   0  0  0  0  0  0  0  0  0  0  0  0
   -6.5286    1.9896   -0.7545 H   0  0  0  0  0  0  0  0  0  0  0  0
   -7.8451    3.1671   -0.4407 H   0  0  0  0  0  0  0  0  0  0  0  0
   -6.3416    4.8752    0.2804 H   0  0  0  0  0  0  0  0  0  0  0  0
   -5.1039    3.4636   -2.1701 H   0  0  0  0  0  0  0  0  0  0  0  0
   -6.4932    4.5904   -2.1508 H   0  0  0  0  0  0  0  0  0  0  0  0
   -5.1013    6.4345   -1.3291 H   0  0  0  0  0  0  0  0  0  0  0  0
   -4.3916    5.7186   -2.8181 H   0  0  0  0  0  0  0  0  0  0  0  0
   -2.7754    4.4198   -1.5007 H   0  0  0  0  0  0  0  0  0  0  0  0
   -4.1093    5.8174    0.9185 H   0  0  0  0  0  0  0  0  0  0  0  0
   -1.6932    3.9120    1.1120 H   0  0  0  0  0  0  0  0  0  0  0  0
   -2.5069    4.7730    2.4328 H   0  0  0  0  0  0  0  0  0  0  0  0
   -1.7951    6.9448    1.6130 H   0  0  0  0  0  0  0  0  0  0  0  0
   -0.3655    5.8713    1.7117 H   0  0  0  0  0  0  0  0  0  0  0  0
   -2.9175    7.3237   -0.5086 H   0  0  0  0  0  0  0  0  0  0  0  0
   -1.7516    6.3080   -3.1266 H   0  0  0  0  0  0  0  0  0  0  0  0
   -2.8175    7.7366   -2.7987 H   0  0  0  0  0  0  0  0  0  0  0  0
   -0.9833    9.0459   -2.1849 H   0  0  0  0  0  0  0  0  0  0  0  0
    0.0628    7.7129   -2.8111 H   0  0  0  0  0  0  0  0  0  0  0  0
   -0.7147    8.4369    0.0274 H   0  0  0  0  0  0  0  0  0  0  0  0
    1.2762    7.5263    0.4366 H   0  0  0  0  0  0  0  0  0  0  0  0
    0.7685    5.0074   -0.3547 H   0  0  0  0  0  0  0  0  0  0  0  0
   -0.6944    4.1384   -0.8689 H   0  0  0  0  0  0  0  0  0  0  0  0
    0.0857    5.2894   -1.9860 H   0  0  0  0  0  0  0  0  0  0  0  0
   -3.5518    2.4076   -0.8463 H   0  0  0  0  0  0  0  0  0  0  0  0
   -2.9577    2.1523    0.8234 H   0  0  0  0  0  0  0  0  0  0  0  0
   -4.5277    1.5075    0.3516 H   0  0  0  0  0  0  0  0  0  0  0  0
  1  2  1  0
  2  3  1  0
  3  4  2  0
  3  5  1  0
  6  5  1  0
  6  7  1  0
  7  8  1  0
  9  8  1  0
  9 10  1  0
  1 11  1  0
  6 11  1  0
 10 11  1  0
 10 12  1  0
 12 13  1  0
 13 14  1  0
  9 15  1  0
 14 15  1  0
 15 16  1  0
 16 17  1  0
 14 18  1  0
 17 18  1  0
 18 19  1  0
 14 20  1  6
 11 21  1  6
  1 22  1  0
  1 23  1  0
  2 24  1  0
  2 25  1  0
  5 26  1  0
  5 27  1  0
  6 28  1  1
  7 29  1  0
  7 30  1  0
  8 31  1  0
  8 32  1  0
  9 33  1  6
 10 34  1  1
 12 35  1  0
 12 36  1  0
 13 37  1  0
 13 38  1  0
 15 39  1  1
 16 40  1  0
 16 41  1  0
 17 42  1  0
 17 43  1  0
 18 44  1  1
 19 45  1  0
 20 46  1  0
 20 47  1  0
 20 48  1  0
 21 49  1  0
 21 50  1  0
 21 51  1  0
M  END
