
     RDKit          3D

 12 12  0  0  0  0  0  0  0  0999 V2000
    3.3360    2.1525  -23.5497 C   0  0  0  0  0  0  0  0  0  0  0  0
    4.0845    3.1534  -24.4536 C   0  0  1  0  0  0  0  0  0  0  0  0
    5.4492    3.5352  -23.8391 C   0  0  2  0  0  0  0  0  0  0  0  0
    6.1350    4.5503  -24.7578 C   0  0  0  0  0  0  0  0  0  0  0  0
    5.2227    5.7600  -24.9735 C   0  0  1  0  0  0  0  0  0  0  0  0
    3.8256    5.3272  -25.4262 C   0  0  0  0  0  0  0  0  0  0  0  0
    2.1677    1.6854  -24.2478 O   0  0  0  0  0  0  0  0  0  0  0  0
    4.2472    2.5612  -25.7463 O   0  0  0  0  0  0  0  0  0  0  0  0
    6.3098    2.4024  -23.6481 O   0  0  0  0  0  0  0  0  0  0  0  0
    7.3653    4.9957  -24.1537 O   0  0  0  0  0  0  0  0  0  0  0  0
    5.1269    6.4907  -23.7403 O   0  0  0  0  0  0  0  0  0  0  0  0
    3.2504    4.3124  -24.5895 O   0  0  0  0  0  0  0  0  0  0  0  0
  1  2  1  0
  2  3  1  0
  3  4  1  0
  4  5  1  0
  5  6  1  0
  1  7  1  0
  2  8  1  6
  3  9  1  6
  4 10  1  0
  5 11  1  1
  2 12  1  0
  6 12  1  0
M  END
