8DW5_FQ7_A_201
     RDKit          3D

 18 19  0  0  0  0  0  0  0  0999 V2000
   23.3250   11.4330    2.2410 C   0  0  0  0  0  0  0  0  0  0  0  0
   23.3010   12.8070    2.1290 C   0  0  0  0  0  0  0  0  0  0  0  0
   22.3040   13.3630    1.3590 C   0  0  0  0  0  0  0  0  0  0  0  0
   20.4890   10.1790    0.2490 N   0  0  0  0  0  0  0  0  0  0  0  0
   20.2940   14.3850   -0.3240 O   0  0  0  0  0  0  0  0  0  0  0  0
   20.2850   13.1500   -0.1380 C   0  0  0  0  0  0  0  0  0  0  0  0
   19.4120   12.4090   -0.6830 O   0  0  0  0  0  0  0  0  0  0  0  0
   21.3700   12.5520    0.7260 C   0  0  0  0  0  0  0  0  0  0  0  0
   22.3800   10.6320    1.6020 C   0  0  0  0  0  0  0  0  0  0  0  0
   21.3930   11.1860    0.8270 C   0  0  0  0  0  0  0  0  0  0  0  0
   20.5830    8.7550    0.1740 C   0  0  0  0  0  0  0  0  0  0  0  0
   20.7100    7.9510    1.3190 C   0  0  0  0  0  0  0  0  0  0  0  0
   20.7900    6.5960    1.1550 C   0  0  0  0  0  0  0  0  0  0  0  0
   20.9960    5.4990    2.5290 Cl  0  0  0  0  0  0  0  0  0  0  0  0
   20.6740    6.0130   -0.0920 C   0  0  0  0  0  0  0  0  0  0  0  0
   20.5050    6.8450   -1.1920 C   0  0  0  0  0  0  0  0  0  0  0  0
   20.3660    6.1460   -2.7930 Cl  0  0  0  0  0  0  0  0  0  0  0  0
   20.4650    8.1950   -1.0830 C   0  0  0  0  0  0  0  0  0  0  0  0
  1  2  2  0
  2  3  1  0
  5  6  1  0
  6  7  2  0
  6  8  1  0
  3  8  2  0
  1  9  1  0
  9 10  2  0
  4 10  1  0
  8 10  1  0
  4 11  1  0
 11 12  2  0
 12 13  1  0
 13 14  1  0
 13 15  2  0
 15 16  1  0
 16 17  1  0
 16 18  2  0
 11 18  1  0
M  END
$$$$
