8DW5_FQ7_A_201
     RDKit          3D

 27 28  0  0  0  0  0  0  0  0999 V2000
    0.4318    2.9726   -0.2952 C   0  0  0  0  0  0  0  0  0  0  0  0
    0.2564    3.3253    1.0414 C   0  0  0  0  0  0  0  0  0  0  0  0
    0.2156    2.3377    2.0273 C   0  0  0  0  0  0  0  0  0  0  0  0
    0.7650   -0.7422   -0.0590 N   0  0  0  0  0  0  0  0  0  0  0  0
    0.4276    0.3408    4.0970 O   0  0  0  0  0  0  0  0  0  0  0  0
    0.2420   -0.0363    2.7692 C   0  0  0  0  0  0  0  0  0  0  0  0
   -0.0411   -1.2360    2.5068 O   0  0  0  0  0  0  0  0  0  0  0  0
    0.3434    0.9771    1.6895 C   0  0  0  0  0  0  0  0  0  0  0  0
    0.5739    1.6312   -0.6502 C   0  0  0  0  0  0  0  0  0  0  0  0
    0.5278    0.6220    0.3278 C   0  0  0  0  0  0  0  0  0  0  0  0
    0.1324   -1.3763   -1.1851 C   0  0  0  0  0  0  0  0  0  0  0  0
    0.7286   -2.5069   -1.7652 C   0  0  0  0  0  0  0  0  0  0  0  0
    0.1226   -3.1499   -2.8500 C   0  0  0  0  0  0  0  0  0  0  0  0
    0.8839   -4.5548   -3.5738 Cl  0  0  0  0  0  0  0  0  0  0  0  0
   -1.0905   -2.6739   -3.3565 C   0  0  0  0  0  0  0  0  0  0  0  0
   -1.7021   -1.5591   -2.7753 C   0  0  0  0  0  0  0  0  0  0  0  0
   -3.2323   -0.9729   -3.4014 Cl  0  0  0  0  0  0  0  0  0  0  0  0
   -1.0978   -0.9148   -1.6902 C   0  0  0  0  0  0  0  0  0  0  0  0
    0.4694    3.7407   -1.0568 H   0  0  0  0  0  0  0  0  0  0  0  0
    0.1503    4.3671    1.3151 H   0  0  0  0  0  0  0  0  0  0  0  0
    0.0660    2.6407    3.0562 H   0  0  0  0  0  0  0  0  0  0  0  0
    1.4842   -1.2808    0.4751 H   0  0  0  0  0  0  0  0  0  0  0  0
    0.3502   -0.3367    4.8462 H   0  0  0  0  0  0  0  0  0  0  0  0
    0.7415    1.3771   -1.6893 H   0  0  0  0  0  0  0  0  0  0  0  0
    1.6678   -2.8822   -1.3779 H   0  0  0  0  0  0  0  0  0  0  0  0
   -1.5595   -3.1724   -4.1955 H   0  0  0  0  0  0  0  0  0  0  0  0
   -1.5953   -0.0674   -1.2368 H   0  0  0  0  0  0  0  0  0  0  0  0
  1  2  2  0
  2  3  1  0
  5  6  1  0
  6  7  2  0
  6  8  1  0
  3  8  2  0
  1  9  1  0
  9 10  2  0
  4 10  1  0
  8 10  1  0
  4 11  1  0
 11 12  2  0
 12 13  1  0
 13 14  1  0
 13 15  2  0
 15 16  1  0
 16 17  1  0
 16 18  2  0
 11 18  1  0
  1 19  1  0
  2 20  1  0
  3 21  1  0
  4 22  1  0
  5 23  1  0
  9 24  1  0
 12 25  1  0
 15 26  1  0
 18 27  1  0
M  END
