8EAB_VN2_B_302
     RDKit          3D

 49 53  0  0  0  0  0  0  0  0999 V2000
    2.8726  -14.1010   19.3364 C   0  0  0  0  0  0  0  0  0  0  0  0
    2.4277  -14.9852   20.3100 C   0  0  0  0  0  0  0  0  0  0  0  0
    2.8346  -16.3160   20.2539 C   0  0  0  0  0  0  0  0  0  0  0  0
    2.3282  -17.2208   21.2747 C   0  0  0  0  0  0  0  0  0  0  0  0
    2.2997  -16.8223   22.6133 C   0  0  0  0  0  0  0  0  0  0  0  0
    1.8007  -17.6751   23.5972 C   0  0  0  0  0  0  0  0  0  0  0  0
    1.3217  -18.9391   23.2527 C   0  0  0  0  0  0  0  0  0  0  0  0
    1.3465  -19.3353   21.9140 C   0  0  0  0  0  0  0  0  0  0  0  0
    1.8466  -18.4840   20.9290 C   0  0  0  0  0  0  0  0  0  0  0  0
    6.7202  -21.5152   19.3135 C   0  0  0  0  0  0  0  0  0  0  0  0
    0.7760  -19.8497   24.2930 C   0  0  1  0  0  0  0  0  0  0  0  0
    4.4606  -21.0085   20.7602 C   0  0  0  0  0  0  0  0  0  0  0  0
    5.1872  -21.1976   21.9436 C   0  0  0  0  0  0  0  0  0  0  0  0
    4.7392  -22.0820   22.9275 C   0  0  0  0  0  0  0  0  0  0  0  0
    3.5510  -22.7895   22.7381 C   0  0  0  0  0  0  0  0  0  0  0  0
    2.8168  -22.6089   21.5646 C   0  0  0  0  0  0  0  0  0  0  0  0
    3.2744  -21.7255   20.5860 C   0  0  0  0  0  0  0  0  0  0  0  0
    1.5474  -23.3407   21.3217 C   0  0  1  0  0  0  0  0  0  0  0  0
    8.0583  -21.7598   19.8586 C   0  0  0  0  0  0  0  0  0  0  0  0
    8.8565  -20.6917   20.2173 C   0  0  0  0  0  0  0  0  0  0  0  0
   10.5749  -22.1041   20.8001 C   0  0  0  0  0  0  0  0  0  0  0  0
    9.8428  -23.2330   20.4676 C   0  0  0  0  0  0  0  0  0  0  0  0
    8.5522  -23.0582   19.9832 C   0  0  0  0  0  0  0  0  0  0  0  0
    4.9156  -20.0543   19.6735 C   0  0  1  0  0  0  0  0  0  0  0  0
    7.7766  -24.2358   19.6617 C   0  0  0  0  0  0  0  0  0  0  0  0
    8.3817  -25.3372   19.0544 C   0  0  0  0  0  0  0  0  0  0  0  0
    7.6229  -26.4687   18.7504 C   0  0  0  0  0  0  0  0  0  0  0  0
    6.2607  -26.4889   19.0436 C   0  0  0  0  0  0  0  0  0  0  0  0
    5.6575  -25.3875   19.6486 C   0  0  0  0  0  0  0  0  0  0  0  0
    6.4162  -24.2625   19.9627 C   0  0  0  0  0  0  0  0  0  0  0  0
    5.4394  -27.6851   18.7356 C   0  0  1  0  0  0  0  0  0  0  0  0
    4.7471  -18.6156   20.0464 C   0  0  0  0  0  0  0  0  0  0  0  0
    3.6679  -16.6821   19.1944 C   0  0  0  0  0  0  0  0  0  0  0  0
    4.0394  -15.7428   18.2534 C   0  0  0  0  0  0  0  0  0  0  0  0
    0.6041  -19.2652   25.5065 F   0  0  0  0  0  0  0  0  0  0  0  0
   -0.4480  -20.3274   23.9211 F   0  0  0  0  0  0  0  0  0  0  0  0
    1.5652  -20.9420   24.5018 F   0  0  0  0  0  0  0  0  0  0  0  0
    0.5432  -22.9708   22.1546 F   0  0  0  0  0  0  0  0  0  0  0  0
    1.0731  -23.1538   20.0640 F   0  0  0  0  0  0  0  0  0  0  0  0
    1.6823  -24.6857   21.4639 F   0  0  0  0  0  0  0  0  0  0  0  0
    4.8260  -28.2123   19.8244 F   0  0  0  0  0  0  0  0  0  0  0  0
    4.4433  -27.3516   17.8727 F   0  0  0  0  0  0  0  0  0  0  0  0
    6.1592  -28.6766   18.1320 F   0  0  0  0  0  0  0  0  0  0  0  0
    3.6649  -14.4496   18.2964 N   0  0  0  0  0  0  0  0  0  0  0  0
    6.2695  -20.2385   19.2352 N   0  0  0  0  0  0  0  0  0  0  0  0
   10.1095  -20.8363   20.6977 N   0  0  0  0  0  0  0  0  0  0  0  0
    4.1971  -17.9388   18.9698 N   0  0  0  0  0  0  0  0  0  0  0  0
    6.0505  -22.4860   19.0103 O   0  0  0  0  0  0  0  0  0  0  0  0
    4.8671  -18.2375   21.2040 O   0  0  0  0  0  0  0  0  0  0  0  0
  1  2  2  0
  2  3  1  0
  3  4  1  0
  4  5  2  0
  5  6  1  0
  6  7  2  0
  7  8  1  0
  8  9  2  0
  4  9  1  0
  7 11  1  0
 12 13  2  0
 13 14  1  0
 14 15  2  0
 15 16  1  0
 16 17  2  0
 12 17  1  0
 16 18  1  0
 10 19  1  0
 19 20  2  0
 21 22  1  0
 19 23  1  0
 22 23  2  0
 12 24  1  0
 23 25  1  0
 25 26  2  0
 26 27  1  0
 27 28  2  0
 28 29  1  0
 29 30  2  0
 25 30  1  0
 28 31  1  0
 24 32  1  0
  3 33  2  0
 33 34  1  0
 11 35  1  1
 11 36  1  0
 11 37  1  0
 18 38  1  1
 18 39  1  0
 18 40  1  0
 31 41  1  1
 31 42  1  0
 31 43  1  0
  1 44  1  0
 34 44  2  0
 24 45  1  1
 10 45  1  0
 20 46  1  0
 21 46  2  0
 33 47  1  0
 32 47  1  0
 10 48  2  0
 32 49  2  0
M  END
