1JD0_AZM_B_2401
     RDKit          3D

 13 13  0  0  0  0  0  0  0  0999 V2000
  -13.2159   -6.4549   21.1100 C   0  0  0  0  0  0  0  0  0  0  0  0
  -15.2719   -4.8650   20.6321 C   0  0  0  0  0  0  0  0  0  0  0  0
  -17.6351   -5.2220   20.2487 C   0  0  0  0  0  0  0  0  0  0  0  0
  -19.0017   -4.8077   19.8369 C   0  0  0  0  0  0  0  0  0  0  0  0
  -10.9272   -7.9027   20.1633 N   0  0  0  0  0  0  0  0  0  0  0  0
  -14.1316   -4.4490   20.7874 N   0  0  0  0  0  0  0  0  0  0  0  0
  -13.0916   -5.1546   21.0207 N   0  0  0  0  0  0  0  0  0  0  0  0
  -16.5762   -4.3142   20.3677 N   0  0  0  0  0  0  0  0  0  0  0  0
  -12.9866   -9.0393   21.2864 O   0  0  0  0  0  0  0  0  0  0  0  0
  -11.5256   -7.7437   22.7571 O   0  0  0  0  0  0  0  0  0  0  0  0
  -17.4067   -6.4512   20.5063 O   0  0  0  0  0  0  0  0  0  0  0  0
  -12.1616   -7.7921   21.3952 S   0  0  2  0  0  6  0  0  0  0  0  0
  -15.0676   -6.6775   20.8195 S   0  0  0  0  0  0  0  0  0  0  0  0
  4  3  1  1
  2  6  2  0
  1  7  2  0
  6  7  1  0
  2  8  1  0
  3  8  1  0
  3 11  2  0
  1 12  1  0
 12  5  1  6
  9 12  2  0
 10 12  2  0
  1 13  1  0
  2 13  1  0
M  END
$$$$
