8C7Y_TXV_A_819
     RDKit          3D

 34 37  0  0  0  0  0  0  0  0999 V2000
    1.5331  112.2777   19.0169 N   0  0  0  0  0  0  0  0  0  0  0  0
   -0.9043  113.5753   20.2017 C   0  0  0  0  0  0  0  0  0  0  0  0
   -0.9501  112.4028   19.4777 C   0  0  0  0  0  0  0  0  0  0  0  0
    3.6019  107.6259   13.3603 N   0  0  0  0  0  0  0  0  0  0  0  0
   -2.1410  111.7109   19.4130 C   0  0  0  0  0  0  0  0  0  0  0  0
    4.1026  111.9989   14.2713 O   0  0  0  0  0  0  0  0  0  0  0  0
   -4.5593  111.4567   20.0065 C   0  0  2  0  0  0  0  0  0  0  0  0
   -3.1714  113.3909   20.7918 C   0  0  0  0  0  0  0  0  0  0  0  0
   -1.9989  114.0798   20.8603 C   0  0  0  0  0  0  0  0  0  0  0  0
    4.4451  108.0453   11.0538 N   0  0  0  0  0  0  0  0  0  0  0  0
   -3.2725  112.1960   20.0709 C   0  0  0  0  0  0  0  0  0  0  0  0
   -4.4440  110.3196   20.9204 C   0  0  0  0  0  0  0  0  0  0  0  0
   -4.7637  110.9395   18.5896 C   0  0  0  0  0  0  0  0  0  0  0  0
    5.8793  109.8591   16.6051 F   0  0  0  0  0  0  0  0  0  0  0  0
    4.7874  110.4665   17.1328 C   0  0  0  0  0  0  0  0  0  0  0  0
    4.7066  110.5182   18.5250 C   0  0  0  0  0  0  0  0  0  0  0  0
    3.6373  111.1136   19.1629 C   0  0  0  0  0  0  0  0  0  0  0  0
    3.7878  111.0160   16.3413 C   0  0  0  0  0  0  0  0  0  0  0  0
    2.7358  111.6013   17.0003 C   0  0  0  0  0  0  0  0  0  0  0  0
    1.7231  112.1417   16.2918 F   0  0  0  0  0  0  0  0  0  0  0  0
    2.6444  111.6591   18.3768 C   0  0  0  0  0  0  0  0  0  0  0  0
    0.1998  111.8504   18.7716 C   0  0  0  0  0  0  0  0  0  0  0  0
    0.0687  110.9425   17.8846 O   0  0  0  0  0  0  0  0  0  0  0  0
   -4.3385  109.4168   21.6324 N   0  0  0  0  0  0  0  0  0  0  0  0
   -5.6525  112.4081   20.4384 C   0  0  0  0  0  0  0  0  0  0  0  0
    3.9274  110.9158   14.9078 C   0  0  0  0  0  0  0  0  0  0  0  0
    3.8872  109.7015   14.1256 C   0  0  0  0  0  0  0  0  0  0  0  0
    4.2955  109.6338   12.7921 C   0  0  0  0  0  0  0  0  0  0  0  0
    4.8105  110.5895   11.9421 C   0  0  0  0  0  0  0  0  0  0  0  0
    5.1495  110.2814   10.6339 C   0  0  0  0  0  0  0  0  0  0  0  0
    5.7968  111.5143    9.5911 Cl  0  0  0  0  0  0  0  0  0  0  0  0
    4.9484  108.9692   10.2152 C   0  0  0  0  0  0  0  0  0  0  0  0
    4.1094  108.3267   12.3306 C   0  0  0  0  0  0  0  0  0  0  0  0
    3.4645  108.4318   14.4340 C   0  0  0  0  0  0  0  0  0  0  0  0
  2  3  2  0
  3  5  1  0
  2  9  1  0
  8  9  2  0
  5 11  2  0
  7 11  1  0
  8 11  1  0
  7 12  1  1
 13  7  1  6
 14 15  1  0
 15 16  2  0
 16 17  1  0
 15 18  1  0
 18 19  2  0
 19 20  1  0
 19 21  1  0
  1 21  1  0
 17 21  2  0
  1 22  1  0
  3 22  1  0
 22 23  2  0
 12 24  3  0
 25  7  1  6
  6 26  2  0
 18 26  1  0
 26 27  1  0
 27 28  1  0
 28 29  2  0
 29 30  1  0
 30 31  1  0
 30 32  2  0
 10 32  1  0
 10 33  2  0
 28 33  1  0
  4 33  1  0
  4 34  1  0
 27 34  2  0
M  END
$$$$
