7D9L_GSF_A_305
     RDKit          3D

 22 21  0  0  0  0  0  0  0  0999 V2000
    8.1820   22.3310   16.7450 C   0  0  0  0  0  0  0  0  0  0  0  0
    8.5470   21.7320   15.4960 C   0  0  0  0  0  0  0  0  0  0  0  0
    9.3000   22.7830   14.7160 C   0  0  0  0  0  0  0  0  0  0  0  0
    9.3110   24.0420   14.9020 O   0  0  0  0  0  0  0  0  0  0  0  0
    7.4540   20.2860   17.8650 C   0  0  0  0  0  0  0  0  0  0  0  0
    7.9800   20.1890   19.0110 O   0  0  0  0  0  0  0  0  0  0  0  0
    7.3810   19.2840   17.1270 O   0  0  0  0  0  0  0  0  0  0  0  0
    6.5760   22.5270   18.5120 N   0  0  0  0  0  0  0  0  0  0  0  0
    6.9710   21.6350   17.3780 C   0  0  1  0  0  0  0  0  0  0  0  0
    9.8870   22.2960   13.6580 N   0  0  0  0  0  0  0  0  0  0  0  0
   10.3710   23.1820   12.6540 C   0  0  1  0  0  0  0  0  0  0  0  0
   11.5680   22.5570   11.9550 C   0  0  0  0  0  0  0  0  0  0  0  0
   13.0680   22.5990   12.9330 S   0  0  0  0  0  0  0  0  0  0  0  0
   13.2220   23.9970   13.2980 O   0  0  0  0  0  0  0  0  0  0  0  0
   14.2010   22.2800   11.9050 O   0  0  0  0  0  0  0  0  0  0  0  0
    9.3320   23.4980   11.6210 C   0  0  0  0  0  0  0  0  0  0  0  0
    8.4030   22.7610   11.5000 O   0  0  0  0  0  0  0  0  0  0  0  0
    9.5230   24.5490   10.8170 N   0  0  0  0  0  0  0  0  0  0  0  0
    8.6450   24.8010    9.6850 C   0  0  0  0  0  0  0  0  0  0  0  0
    8.2910   26.2350    9.4480 C   0  0  0  0  0  0  0  0  0  0  0  0
    8.1950   26.9060   10.4900 O   0  0  0  0  0  0  0  0  0  0  0  0
    8.0840   26.6950    8.2780 O   0  0  0  0  0  0  0  0  0  0  0  0
  1  2  1  0
  2  3  1  0
  3  4  2  0
  5  6  1  0
  5  7  2  0
  1  9  1  0
  5  9  1  0
  9  8  1  1
  3 10  1  0
 10 11  1  0
 11 12  1  6
 12 13  1  0
 13 14  2  0
 13 15  1  6
 11 16  1  0
 16 17  2  0
 16 18  1  0
 18 19  1  0
 19 20  1  0
 20 21  1  0
 20 22  2  0
M  END
$$$$
