8BTI_RFO_A_510
     RDKit          3D

 15 16  0  0  0  0  0  0  0  0999 V2000
   21.3460   67.1520   72.1260 C   0  0  0  0  0  0  0  0  0  0  0  0
   23.6600   66.9270   71.6680 C   0  0  0  0  0  0  0  0  0  0  0  0
   24.9250   67.6010   72.0250 C   0  0  0  0  0  0  0  0  0  0  0  0
   26.1130   65.4480   71.4130 C   0  0  0  0  0  0  0  0  0  0  0  0
   27.5390   65.0010   71.3740 C   0  0  0  0  0  0  0  0  0  0  0  0
   28.2990   66.1490   72.0490 C   0  0  0  0  0  0  0  0  0  0  0  0
   29.6150   66.2460   72.5010 C   0  0  0  0  0  0  0  0  0  0  0  0
   30.1020   67.4050   73.1510 C   0  0  0  0  0  0  0  0  0  0  0  0
   29.2090   68.4650   73.3540 C   0  0  0  0  0  0  0  0  0  0  0  0
   27.9050   68.4170   72.9110 C   0  0  0  0  0  0  0  0  0  0  0  0
   27.4330   67.2270   72.2630 C   0  0  0  0  0  0  0  0  0  0  0  0
   26.1020   66.8480   71.8310 N   0  0  0  0  0  0  0  0  0  0  0  0
   22.6140   67.7830   72.0860 O   0  0  0  0  0  0  0  0  0  0  0  0
   25.0060   68.7470   72.3900 O   0  0  0  0  0  0  0  0  0  0  0  0
   30.6100   64.8670   72.1950 Cl  0  0  0  0  0  0  0  0  0  0  0  0
  2  3  1  0
  4  5  2  0
  5  6  1  0
  6  7  2  0
  7  8  1  0
  8  9  2  0
  9 10  1  0
  6 11  1  0
 10 11  2  0
  4 12  1  0
  3 12  1  0
 11 12  1  0
  2 13  1  0
  1 13  1  0
  3 14  2  0
  7 15  1  0
M  END
$$$$
