7MSR_DCA_A_401
     RDKit          3D

 47 49  0  0  0  0  0  0  0  0999 V2000
   10.1285   -6.8697   12.9305 N   0  0  0  0  0  0  0  0  0  0  0  0
    9.6715   -5.7481   13.4982 C   0  0  0  0  0  0  0  0  0  0  0  0
    9.9712   -5.2344   14.6949 N   0  0  0  0  0  0  0  0  0  0  0  0
   10.8461   -6.0056   15.3469 C   0  0  0  0  0  0  0  0  0  0  0  0
   11.4101   -7.1910   14.8984 C   0  0  0  0  0  0  0  0  0  0  0  0
   11.0181   -7.6210   13.6137 C   0  0  0  0  0  0  0  0  0  0  0  0
   11.5097   -8.7487   13.0684 N   0  0  0  0  0  0  0  0  0  0  0  0
   12.2675   -7.7136   15.8440 N   0  0  0  0  0  0  0  0  0  0  0  0
   12.2179   -6.8549   16.8287 C   0  0  0  0  0  0  0  0  0  0  0  0
   11.3785   -5.7932   16.5973 N   0  0  0  0  0  0  0  0  0  0  0  0
   11.0840   -4.6730   17.4757 C   0  0  1  0  0  0  0  0  0  0  0  0
   11.7359   -4.7249   18.8525 C   0  0  2  0  0  0  0  0  0  0  0  0
   10.9869   -5.5804   19.7056 O   0  0  0  0  0  0  0  0  0  0  0  0
   11.6205   -3.2549   19.2547 C   0  0  2  0  0  0  0  0  0  0  0  0
   10.3271   -3.0556   19.8599 O   0  0  0  0  0  0  0  0  0  0  0  0
   10.0031   -3.2613   21.4044 P   0  0  1  0  0  0  0  0  0  0  0  0
   11.1288   -2.7631   22.2498 O   0  0  0  0  0  0  0  0  0  0  0  0
    8.6868   -2.5249   21.6676 O   0  0  0  0  0  0  0  0  0  0  0  0
    9.7668   -4.7684   21.5710 O   0  0  0  0  0  0  0  0  0  0  0  0
   11.6416   -2.4896   17.9218 C   0  0  2  0  0  0  0  0  0  0  0  0
   11.5725   -3.4895   16.8830 O   0  0  0  0  0  0  0  0  0  0  0  0
   12.8653   -1.6316   17.7253 C   0  0  0  0  0  0  0  0  0  0  0  0
   12.5495   -0.3065   18.1768 O   0  0  0  0  0  0  0  0  0  0  0  0
   13.6703    0.7167   18.6331 P   0  0  2  0  0  0  0  0  0  0  0  0
   15.0094    0.0946   18.6274 O   0  0  0  0  0  0  0  0  0  0  0  0
   13.1777    1.3377   19.9405 O   0  0  0  0  0  0  0  0  0  0  0  0
   13.5806    1.8373   17.5090 O   0  0  0  0  0  0  0  0  0  0  0  0
   12.4082    2.7030   16.8726 P   0  0  2  0  0  0  0  0  0  0  0  0
   11.9513    3.7758   17.7690 O   0  0  0  0  0  0  0  0  0  0  0  0
   11.3461    1.7026   16.3315 O   0  0  0  0  0  0  0  0  0  0  0  0
   13.0953    3.3907   15.6258 O   0  0  0  0  0  0  0  0  0  0  0  0
   12.4225    4.0679   13.4008 C   0  0  2  0  0  0  0  0  0  0  0  0
   12.8963    2.9204   14.2876 C   0  0  0  0  0  0  0  0  0  0  0  0
   10.9512    4.3813   13.7179 C   0  0  0  0  0  0  0  0  0  0  0  0
   12.5503    3.6629   11.9225 C   0  0  0  0  0  0  0  0  0  0  0  0
   13.2795    5.3303   13.6766 C   0  0  1  0  0  0  0  0  0  0  0  0
   14.1749    5.1083   14.7571 O   0  0  0  0  0  0  0  0  0  0  0  0
   14.0398    5.8804   12.4763 C   0  0  0  0  0  0  0  0  0  0  0  0
   13.4849    6.6390   11.6891 O   0  0  0  0  0  0  0  0  0  0  0  0
   15.3109    5.4979   12.3547 N   0  0  0  0  0  0  0  0  0  0  0  0
   16.3299    6.3371   11.7392 C   0  0  0  0  0  0  0  0  0  0  0  0
   16.9770    7.2838   12.7438 C   0  0  0  0  0  0  0  0  0  0  0  0
   18.2366    7.9017   12.2018 C   0  0  0  0  0  0  0  0  0  0  0  0
   19.2704    7.2531   12.0631 O   0  0  0  0  0  0  0  0  0  0  0  0
   18.1350    9.1893   11.8827 N   0  0  0  0  0  0  0  0  0  0  0  0
   19.2078    9.8571   11.1576 C   0  0  0  0  0  0  0  0  0  0  0  0
   18.7932   11.1835   10.6702 C   0  0  0  0  0  0  0  0  0  0  0  0
  1  2  2  0
  2  3  1  0
  3  4  2  0
  4  5  1  0
  1  6  1  0
  5  6  2  0
  6  7  1  0
  5  8  1  0
  8  9  2  0
  4 10  1  0
  9 10  1  0
 11 10  1  6
 11 12  1  0
 12 13  1  1
 12 14  1  0
 14 15  1  6
 15 16  1  0
 16 17  2  0
 16 18  1  1
 16 19  1  0
 14 20  1  0
 11 21  1  0
 20 21  1  0
 20 22  1  6
 22 23  1  0
 23 24  1  0
 24 25  2  0
 24 26  1  1
 24 27  1  0
 27 28  1  0
 28 29  2  0
 28 30  1  6
 28 31  1  0
 31 33  1  0
 32 33  1  0
 32 34  1  1
 32 35  1  0
 32 36  1  0
 36 37  1  1
 36 38  1  0
 38 39  2  0
 38 40  1  0
 40 41  1  0
 41 42  1  0
 42 43  1  0
 43 44  2  0
 43 45  1  0
 45 46  1  0
 46 47  1  0
M  END
