1S19_MC9_A_500
     RDKit          3D

 70 73  0  0  0  0  0  0  0  0999 V2000
   16.3654   18.0413   34.7586 O   0  0  0  0  0  0  0  0  0  0  0  0
   12.4216   17.6704   36.6645 O   0  0  0  0  0  0  0  0  0  0  0  0
   13.4886   18.1642   35.7864 C   0  0  1  0  0  0  0  0  0  0  0  0
   14.0922   17.0303   34.8450 C   0  0  0  0  0  0  0  0  0  0  0  0
   15.2686   17.6011   33.9007 C   0  0  1  0  0  0  0  0  0  0  0  0
   14.7439   18.8284   33.0259 C   0  0  0  0  0  0  0  0  0  0  0  0
   14.0651   19.9685   33.8561 C   0  0  0  0  0  0  0  0  0  0  0  0
   14.3603   21.3183   33.7180 C   0  0  0  0  0  0  0  0  0  0  0  0
   13.8253   22.5284   34.3997 C   0  0  0  0  0  0  0  0  0  0  0  0
   13.8057   23.7753   33.9918 C   0  0  0  0  0  0  0  0  0  0  0  0
   14.4044   24.2610   32.5726 C   0  0  0  0  0  0  0  0  0  0  0  0
   12.9730   19.3696   34.8841 C   0  0  0  0  0  0  0  0  0  0  0  0
   13.2966   25.0046   31.6495 C   0  0  0  0  0  0  0  0  0  0  0  0
   12.4270   26.0331   32.5466 C   0  0  0  0  0  0  0  0  0  0  0  0
   11.8576   25.5624   34.0645 C   0  0  1  0  0  0  0  0  0  0  0  0
   13.1805   24.9342   34.8242 C   0  0  1  0  0  0  0  0  0  0  0  0
   12.4939   24.5877   36.3267 C   0  0  0  0  0  0  0  0  0  0  0  0
   11.4127   25.7525   36.4733 C   0  0  0  0  0  0  0  0  0  0  0  0
   11.5466   26.6093   35.1563 C   0  0  2  0  0  0  0  0  0  0  0  0
   10.6769   24.3888   33.6216 C   0  0  0  0  0  0  0  0  0  0  0  0
   11.6670   19.8430   34.9766 C   0  0  0  0  0  0  0  0  0  0  0  0
   10.1974   27.5277   34.8213 C   0  0  1  0  0  0  0  0  0  0  0  0
    8.7632   26.9994   35.1255 C   0  0  0  0  0  0  0  0  0  0  0  0
    6.7425   25.4442   34.6871 C   0  0  2  0  0  0  0  0  0  0  0  0
   10.3022   28.8818   35.5551 C   0  0  0  0  0  0  0  0  0  0  0  0
    5.8342   26.5743   33.9769 C   0  0  2  0  0  0  0  0  0  0  0  0
    6.1701   26.3870   32.4795 C   0  0  0  0  0  0  0  0  0  0  0  0
    6.2216   27.6898   33.3797 C   0  0  0  0  0  0  0  0  0  0  0  0
    6.3823   25.1251   36.0579 O   0  0  0  0  0  0  0  0  0  0  0  0
    8.2171   25.8585   34.6176 C   0  0  0  0  0  0  0  0  0  0  0  0
   16.6816   17.2931   35.2886 H   0  0  0  0  0  0  0  0  0  0  0  0
   12.7593   16.9378   37.2032 H   0  0  0  0  0  0  0  0  0  0  0  0
   14.2687   18.5022   36.4360 H   0  0  0  0  0  0  0  0  0  0  0  0
   13.3104   16.6402   34.2272 H   0  0  0  0  0  0  0  0  0  0  0  0
   14.5069   16.2658   35.4683 H   0  0  0  0  0  0  0  0  0  0  0  0
   15.5976   16.8336   33.2317 H   0  0  0  0  0  0  0  0  0  0  0  0
   14.0297   18.4564   32.3213 H   0  0  0  0  0  0  0  0  0  0  0  0
   15.6037   19.2607   32.5582 H   0  0  0  0  0  0  0  0  0  0  0  0
   15.0852   21.5198   33.0117 H   0  0  0  0  0  0  0  0  0  0  0  0
   13.4086   22.3624   35.3292 H   0  0  0  0  0  0  0  0  0  0  0  0
   14.7718   23.4056   32.0450 H   0  0  0  0  0  0  0  0  0  0  0  0
   15.1841   24.9656   32.7739 H   0  0  0  0  0  0  0  0  0  0  0  0
   12.6456   24.2728   31.2187 H   0  0  0  0  0  0  0  0  0  0  0  0
   13.7944   25.5494   30.8747 H   0  0  0  0  0  0  0  0  0  0  0  0
   11.5695   26.3002   31.9650 H   0  0  0  0  0  0  0  0  0  0  0  0
   13.1278   26.8078   32.7781 H   0  0  0  0  0  0  0  0  0  0  0  0
   14.0505   25.5468   34.9371 H   0  0  0  0  0  0  0  0  0  0  0  0
   13.2238   24.6340   37.1078 H   0  0  0  0  0  0  0  0  0  0  0  0
   12.0801   23.6034   36.3956 H   0  0  0  0  0  0  0  0  0  0  0  0
   11.6220   26.3524   37.3341 H   0  0  0  0  0  0  0  0  0  0  0  0
   10.4231   25.3657   36.5997 H   0  0  0  0  0  0  0  0  0  0  0  0
   12.3136   27.3509   35.2370 H   0  0  0  0  0  0  0  0  0  0  0  0
   11.0731   23.7559   32.8552 H   0  0  0  0  0  0  0  0  0  0  0  0
    9.8008   24.8838   33.2578 H   0  0  0  0  0  0  0  0  0  0  0  0
   10.4234   23.7977   34.4767 H   0  0  0  0  0  0  0  0  0  0  0  0
   11.0119   19.4211   35.6531 H   0  0  0  0  0  0  0  0  0  0  0  0
   11.3540   20.6159   34.3685 H   0  0  0  0  0  0  0  0  0  0  0  0
   10.2496   27.5437   33.7527 H   0  0  0  0  0  0  0  0  0  0  0  0
    8.1782   27.5600   35.7646 H   0  0  0  0  0  0  0  0  0  0  0  0
    6.5611   24.5442   34.1375 H   0  0  0  0  0  0  0  0  0  0  0  0
   10.2357   28.7214   36.6109 H   0  0  0  0  0  0  0  0  0  0  0  0
    9.5038   29.5208   35.2403 H   0  0  0  0  0  0  0  0  0  0  0  0
   11.2400   29.3418   35.3226 H   0  0  0  0  0  0  0  0  0  0  0  0
    5.0443   26.5582   34.6985 H   0  0  0  0  0  0  0  0  0  0  0  0
    5.4033   26.2422   31.7475 H   0  0  0  0  0  0  0  0  0  0  0  0
    6.8216   25.8031   31.8635 H   0  0  0  0  0  0  0  0  0  0  0  0
    7.1695   28.1181   33.6304 H   0  0  0  0  0  0  0  0  0  0  0  0
    5.7895   28.6646   33.2892 H   0  0  0  0  0  0  0  0  0  0  0  0
    6.5230   25.9038   36.6188 H   0  0  0  0  0  0  0  0  0  0  0  0
    8.8601   25.2088   34.1386 H   0  0  0  0  0  0  0  0  0  0  0  0
  3  2  1  0
  3  4  1  0
  5  1  1  0
  4  5  1  0
  5  6  1  0
  6  7  1  0
  7  8  2  3
  8  9  1  0
  9 10  2  3
 10 11  1  0
  3 12  1  0
  7 12  1  0
 11 13  1  0
 13 14  1  0
 14 15  1  0
 10 16  1  0
 15 16  1  0
 16 17  1  0
 17 18  1  0
 15 19  1  0
 19 18  1  0
 15 20  1  6
 12 21  2  3
 19 22  1  0
 22 23  1  0
 22 25  1  0
 24 26  1  0
 26 27  1  0
 26 28  1  0
 27 28  1  0
 24 29  1  0
 23 30  2  3
 24 30  1  0
  1 31  1  0
  2 32  1  0
  3 33  1  1
  4 34  1  0
  4 35  1  0
  5 36  1  6
  6 37  1  0
  6 38  1  0
  8 39  1  0
  9 40  1  0
 11 41  1  0
 11 42  1  0
 13 43  1  0
 13 44  1  0
 14 45  1  0
 14 46  1  0
 16 47  1  1
 17 48  1  0
 17 49  1  0
 18 50  1  0
 18 51  1  0
 19 52  1  1
 20 53  1  0
 20 54  1  0
 20 55  1  0
 21 56  1  0
 21 57  1  0
 22 58  1  6
 23 59  1  0
 24 60  1  6
 25 61  1  0
 25 62  1  0
 25 63  1  0
 26 64  1  6
 27 65  1  0
 27 66  1  0
 28 67  1  0
 28 68  1  0
 29 69  1  0
 30 70  1  0
M  END
