
     RDKit          3D

 29 32  0  0  0  0  0  0  0  0999 V2000
  -14.7799    5.7967  -19.3615 N   0  0  0  0  0  0  0  0  0  0  0  0
  -17.8103    5.1506  -16.8071 N   0  0  0  0  0  0  0  0  0  0  0  0
  -16.8601    5.3140  -17.7771 C   0  0  0  0  0  0  0  0  0  0  0  0
  -16.0007    5.9374  -15.7957 C   0  0  0  0  0  0  0  0  0  0  0  0
  -17.3033    5.5309  -15.5929 C   0  0  0  0  0  0  0  0  0  0  0  0
  -12.2876    6.3831  -18.5879 C   0  0  0  0  0  0  0  0  0  0  0  0
  -13.3842    7.6852  -16.7189 C   0  0  1  0  0  0  0  0  0  0  0  0
  -12.6782   10.1367  -16.9753 C   0  0  0  0  0  0  0  0  0  0  0  0
  -11.6865    8.7677  -13.5910 C   0  0  0  0  0  0  0  0  0  0  0  0
  -13.0318    7.4651  -10.9031 C   0  0  0  0  0  0  0  0  0  0  0  0
  -11.7320    5.5766  -10.0868 C   0  0  0  0  0  0  0  0  0  0  0  0
  -13.7181    7.4607   -9.6786 C   0  0  0  0  0  0  0  0  0  0  0  0
  -15.9697    5.3399  -19.7976 C   0  0  0  0  0  0  0  0  0  0  0  0
  -12.6645   10.1541  -15.4517 C   0  0  0  0  0  0  0  0  0  0  0  0
  -12.1659    7.7245  -15.7654 C   0  0  0  0  0  0  0  0  0  0  0  0
  -12.5189    9.3557  -12.4349 C   0  0  0  0  0  0  0  0  0  0  0  0
  -12.0584    6.4803  -11.1037 C   0  0  0  0  0  0  0  0  0  0  0  0
  -12.3880    5.6110   -8.8628 C   0  0  0  0  0  0  0  0  0  0  0  0
  -13.3892    6.5534   -8.6687 C   0  0  0  0  0  0  0  0  0  0  0  0
  -14.5892    6.0201  -18.0308 C   0  0  0  0  0  0  0  0  0  0  0  0
  -15.6980    5.7863  -17.1826 C   0  0  0  0  0  0  0  0  0  0  0  0
  -13.5338    8.9951  -17.5224 C   0  0  0  0  0  0  0  0  0  0  0  0
  -17.0630    5.0581  -19.0759 N   0  0  0  0  0  0  0  0  0  0  0  0
  -13.3401    6.4814  -17.5788 N   0  0  0  0  0  0  0  0  0  0  0  0
  -12.1821    8.8979  -14.8832 N   0  0  0  0  0  0  0  0  0  0  0  0
  -13.4611    8.3574  -11.8988 N   0  0  0  0  0  0  0  0  0  0  0  0
  -10.6087    8.2113  -13.3563 O   0  0  0  0  0  0  0  0  0  0  0  0
  -14.2402    6.5959   -7.1730 Cl  0  0  0  0  0  0  0  0  0  0  0  0
  -10.5081    4.3962  -10.3630 Cl  0  0  0  0  0  0  0  0  0  0  0  0
  2  3  4  0
  2  5  4  0
  4  5  4  0
 10 12  4  0
  1 13  4  0
  8 14  1  0
  7 15  1  0
  9 16  1  0
 10 17  4  0
 11 17  4  0
 11 18  4  0
 12 19  4  0
 18 19  4  0
  1 20  4  0
 20 21  4  0
  3 21  4  0
  4 21  4  0
  7 22  1  0
  8 22  1  0
 13 23  4  0
  3 23  4  0
  6 24  1  0
 20 24  1  0
  7 24  1  6
 15 25  1  0
 14 25  1  0
  9 25  1  0
 16 26  1  0
 10 26  1  0
  9 27  2  0
 19 28  1  0
 11 29  1  0
M  END
