1Y6B_AAX_A_201
     RDKit          3D

 58 62  0  0  0  0  0  0  0  0999 V2000
   -4.4143    3.8547   -3.5892 O   0  0  0  0  0  0  0  0  0  0  0  0
   -4.5733    2.5204   -2.9144 S   0  0  0  0  0  6  0  0  0  0  0  0
   -5.6899    1.7752   -3.5898 O   0  0  0  0  0  0  0  0  0  0  0  0
   -4.9735    2.7586   -1.2403 N   0  0  0  0  0  0  0  0  0  0  0  0
   -3.8762    3.4501   -0.5622 C   0  0  0  0  0  0  0  0  0  0  0  0
   -4.2820    3.7572    0.8829 C   0  0  0  0  0  0  0  0  0  0  0  0
   -3.1248    3.9561    1.8497 C   0  0  0  0  0  0  0  0  0  0  0  0
   -3.9476    2.6774    1.9009 C   0  0  0  0  0  0  0  0  0  0  0  0
   -3.0879    1.5826   -3.0597 C   0  0  0  0  0  0  0  0  0  0  0  0
   -1.8954    2.1935   -3.4619 C   0  0  0  0  0  0  0  0  0  0  0  0
   -0.7185    1.4476   -3.5518 C   0  0  0  0  0  0  0  0  0  0  0  0
   -3.0907    0.2242   -2.7258 C   0  0  0  0  0  0  0  0  0  0  0  0
   -1.9094   -0.5288   -2.7829 C   0  0  0  0  0  0  0  0  0  0  0  0
   -0.7146    0.0767   -3.2280 C   0  0  0  0  0  0  0  0  0  0  0  0
    0.4425   -0.7084   -3.3579 O   0  0  0  0  0  0  0  0  0  0  0  0
    1.7231   -0.2085   -3.7275 C   0  0  0  0  0  0  0  0  0  0  0  0
   -1.9521   -1.9153   -2.4121 N   0  0  0  0  0  0  0  0  0  0  0  0
   -1.0041   -2.5048   -1.5155 C   0  0  0  0  0  0  0  0  0  0  0  0
   -0.0549   -1.8306   -0.9089 O   0  0  0  0  0  0  0  0  0  0  0  0
    0.6084   -2.6864   -0.1723 C   0  0  0  0  0  0  0  0  0  0  0  0
    0.0226   -3.9284   -0.3395 C   0  0  0  0  0  0  0  0  0  0  0  0
   -1.0105   -3.8153   -1.1972 N   0  0  0  0  0  0  0  0  0  0  0  0
    1.7755   -2.3293    0.6648 C   0  0  0  0  0  0  0  0  0  0  0  0
    2.4229   -3.2848    1.4701 C   0  0  0  0  0  0  0  0  0  0  0  0
    3.5355   -2.9292    2.2561 C   0  0  0  0  0  0  0  0  0  0  0  0
    3.9958   -1.6014    2.2256 C   0  0  0  0  0  0  0  0  0  0  0  0
    3.3572   -0.6502    1.4286 C   0  0  0  0  0  0  0  0  0  0  0  0
    2.2542   -1.0094    0.6528 C   0  0  0  0  0  0  0  0  0  0  0  0
    4.2143   -3.9416    3.1051 C   0  0  0  0  0  0  0  0  0  0  0  0
    3.4720   -4.8941    3.8262 C   0  0  0  0  0  0  0  0  0  0  0  0
    4.1047   -5.8155    4.6010 N   0  0  0  0  0  0  0  0  0  0  0  0
    5.4588   -5.8540    4.7056 C   0  0  0  0  0  0  0  0  0  0  0  0
    6.2394   -4.9307    4.0100 C   0  0  0  0  0  0  0  0  0  0  0  0
    5.6156   -3.9725    3.2093 C   0  0  0  0  0  0  0  0  0  0  0  0
   -5.0704    1.8075   -0.8149 H   0  0  0  0  0  0  0  0  0  0  0  0
   -2.9485    2.8348   -0.6014 H   0  0  0  0  0  0  0  0  0  0  0  0
   -3.6729    4.4191   -1.0667 H   0  0  0  0  0  0  0  0  0  0  0  0
   -5.1893    4.3620    1.0957 H   0  0  0  0  0  0  0  0  0  0  0  0
   -2.1042    3.8185    1.4324 H   0  0  0  0  0  0  0  0  0  0  0  0
   -3.3360    4.6587    2.6833 H   0  0  0  0  0  0  0  0  0  0  0  0
   -4.6470    2.6260    2.7618 H   0  0  0  0  0  0  0  0  0  0  0  0
   -3.4179    1.7819    1.5105 H   0  0  0  0  0  0  0  0  0  0  0  0
   -1.8732    3.2471   -3.7082 H   0  0  0  0  0  0  0  0  0  0  0  0
    0.1823    1.9457   -3.8827 H   0  0  0  0  0  0  0  0  0  0  0  0
   -4.0090   -0.2453   -2.3947 H   0  0  0  0  0  0  0  0  0  0  0  0
    1.6845    0.2235   -4.7497 H   0  0  0  0  0  0  0  0  0  0  0  0
    2.4525   -1.0440   -3.7221 H   0  0  0  0  0  0  0  0  0  0  0  0
    2.0575    0.5592   -2.9979 H   0  0  0  0  0  0  0  0  0  0  0  0
   -2.7988   -2.4744   -2.6622 H   0  0  0  0  0  0  0  0  0  0  0  0
    0.3196   -4.8597    0.1220 H   0  0  0  0  0  0  0  0  0  0  0  0
    2.0777   -4.3093    1.4769 H   0  0  0  0  0  0  0  0  0  0  0  0
    4.8388   -1.2943    2.8317 H   0  0  0  0  0  0  0  0  0  0  0  0
    3.7169    0.3707    1.4145 H   0  0  0  0  0  0  0  0  0  0  0  0
    1.7767   -0.2540    0.0405 H   0  0  0  0  0  0  0  0  0  0  0  0
    2.3905   -4.8956    3.7890 H   0  0  0  0  0  0  0  0  0  0  0  0
    5.9294   -6.6019    5.3297 H   0  0  0  0  0  0  0  0  0  0  0  0
    7.3185   -4.9594    4.0878 H   0  0  0  0  0  0  0  0  0  0  0  0
    6.2279   -3.2694    2.6588 H   0  0  0  0  0  0  0  0  0  0  0  0
  1  2  2  0
  2  3  2  0
  2  4  1  0
  4  5  1  0
  5  6  1  0
  6  7  1  0
  6  8  1  0
  7  8  1  0
  2  9  1  0
  9 10  2  0
 10 11  1  0
  9 12  1  0
 12 13  2  0
 11 14  2  0
 13 14  1  0
 14 15  1  0
 15 16  1  0
 13 17  1  0
 17 18  1  0
 18 19  1  0
 19 20  1  0
 20 21  2  0
 18 22  2  0
 21 22  1  0
 20 23  1  0
 23 24  2  0
 24 25  1  0
 25 26  2  0
 26 27  1  0
 23 28  1  0
 27 28  2  0
 25 29  1  0
 29 30  2  0
 30 31  1  0
 31 32  2  0
 32 33  1  0
 29 34  1  0
 33 34  2  0
  4 35  1  0
  5 36  1  0
  5 37  1  0
  6 38  1  0
  7 39  1  0
  7 40  1  0
  8 41  1  0
  8 42  1  0
 10 43  1  0
 11 44  1  0
 12 45  1  0
 16 46  1  0
 16 47  1  0
 16 48  1  0
 17 49  1  0
 21 50  1  0
 24 51  1  0
 26 52  1  0
 27 53  1  0
 28 54  1  0
 30 55  1  0
 32 56  1  0
 33 57  1  0
 34 58  1  0
M  END
