
     RDKit          3D

 34 37  0  0  0  0  0  0  0  0999 V2000
  -27.9280    7.5360   -1.5698 N   0  0  0  0  0  0  0  0  0  0  0  0
  -23.0458    4.5839    0.1362 N   0  0  0  0  0  0  0  0  0  0  0  0
  -30.0809    8.7963   -1.7067 C   0  0  0  0  0  0  0  0  0  0  0  0
  -29.2025    7.8530   -1.1250 C   0  0  0  0  0  0  0  0  0  0  0  0
  -29.6118    7.1720    0.0224 C   0  0  0  0  0  0  0  0  0  0  0  0
  -27.3643    6.6967   -0.7422 C   0  0  0  0  0  0  0  0  0  0  0  0
  -33.0911    8.5800    0.5399 C   0  0  0  0  0  0  0  0  0  0  0  0
  -31.4872    9.0606   -4.4811 C   0  0  0  0  0  0  0  0  0  0  0  0
  -32.8054    7.2140   -6.1317 C   0  0  0  0  0  0  0  0  0  0  0  0
  -32.8611    9.1963   -4.7425 C   0  0  0  0  0  0  0  0  0  0  0  0
  -25.1284    5.9654   -0.0252 C   0  0  0  0  0  0  0  0  0  0  0  0
  -22.5456    4.2086   -1.9887 C   0  0  0  0  0  0  0  0  0  0  0  0
  -22.1455    3.9602   -0.6912 C   0  0  0  0  0  0  0  0  0  0  0  0
  -20.9830    3.2031   -0.1602 C   0  0  0  0  0  0  0  0  0  0  0  0
  -30.8789    7.3731    0.5958 C   0  0  0  0  0  0  0  0  0  0  0  0
  -31.7431    8.3003   -0.0130 C   0  0  0  0  0  0  0  0  0  0  0  0
  -31.3519    8.9998   -1.1588 C   0  0  0  0  0  0  0  0  0  0  0  0
  -28.3301    6.1387    0.5367 S   0  0  0  0  0  0  0  0  0  0  0  0
  -33.2310    8.1631    1.8094 O   0  0  0  0  0  0  0  0  0  0  0  0
  -34.0004    9.1296   -0.0524 O   0  0  0  0  0  0  0  0  0  0  0  0
  -29.6775    9.4810   -2.8305 O   0  0  0  0  0  0  0  0  0  0  0  0
  -30.7660   10.0400   -3.5778 C   0  0  0  0  0  0  0  0  0  0  0  0
  -30.7824    8.0022   -5.0731 C   0  0  0  0  0  0  0  0  0  0  0  0
  -31.4375    7.0849   -5.8958 C   0  0  0  0  0  0  0  0  0  0  0  0
  -33.5263    8.2651   -5.5517 C   0  0  0  0  0  0  0  0  0  0  0  0
  -34.9785    8.3493   -5.8311 C   0  0  0  0  0  0  0  0  0  0  0  0
  -35.8515    7.7832   -5.1953 O   0  0  0  0  0  0  0  0  0  0  0  0
  -35.2979    9.1328   -6.8761 O   0  0  0  0  0  0  0  0  0  0  0  0
  -26.0748    6.2981   -0.9640 N   0  0  0  0  0  0  0  0  0  0  0  0
  -24.0343    5.2065   -0.6015 C   0  0  0  0  0  0  0  0  0  0  0  0
  -23.7244    4.9955   -1.9351 C   0  0  0  0  0  0  0  0  0  0  0  0
  -25.1618    6.2571    1.1619 O   0  0  0  0  0  0  0  0  0  0  0  0
  -24.6054    5.5380   -3.2922 Cl  0  0  0  0  0  0  0  0  0  0  0  0
  -21.7631    3.6677   -3.4013 Cl  0  0  0  0  0  0  0  0  0  0  0  0
  3  4  4  0
  1  4  4  0
  4  5  4  0
  1  6  4  0
  8 10  4  0
 12 13  4  0
  2 13  4  0
 13 14  1  0
  5 15  4  0
 15 16  4  0
  7 16  1  0
  3 17  4  0
 16 17  4  0
  6 18  4  0
  5 18  4  0
  7 19  1  0
  7 20  2  0
  3 21  1  0
  8 22  1  0
 21 22  1  0
  8 23  4  0
  9 24  4  0
 23 24  4  0
  9 25  4  0
 10 25  4  0
 25 26  1  0
 26 27  2  0
 26 28  1  0
  6 29  1  0
 11 29  1  0
 11 30  1  0
  2 30  4  0
 12 31  4  0
 30 31  4  0
 11 32  2  0
 31 33  1  0
 12 34  1  0
M  END
