7JUD_MMA_A_803
     RDKit          3D

 13 13  0  0  0  0  0  0  0  0999 V2000
   -0.3589  -18.1210   -0.3757 C   0  0  1  0  0  0  0  0  0  0  0  0
   -1.2366  -18.0287    0.8597 C   0  0  2  0  0  0  0  0  0  0  0  0
   -2.1440  -16.8536    0.7987 C   0  0  2  0  0  0  0  0  0  0  0  0
   -1.3893  -15.5816    0.5898 C   0  0  1  0  0  0  0  0  0  0  0  0
   -0.5671  -15.6577   -0.6996 C   0  0  1  0  0  0  0  0  0  0  0  0
    0.2820  -14.4257   -0.8618 C   0  0  0  0  0  0  0  0  0  0  0  0
   -0.6324  -19.4199   -2.3017 C   0  0  0  0  0  0  0  0  0  0  0  0
   -1.1559  -18.4319   -1.4350 O   0  0  0  0  0  0  0  0  0  0  0  0
   -0.3825  -17.9134    2.0146 O   0  0  0  0  0  0  0  0  0  0  0  0
   -2.8804  -16.7544    2.0498 O   0  0  0  0  0  0  0  0  0  0  0  0
   -2.3456  -14.5186    0.5433 O   0  0  0  0  0  0  0  0  0  0  0  0
    0.3282  -16.8242   -0.6551 O   0  0  0  0  0  0  0  0  0  0  0  0
    1.1663  -14.3110    0.2268 O   0  0  0  0  0  0  0  0  0  0  0  0
  1  2  1  0
  2  3  1  0
  3  4  1  0
  4  5  1  0
  5  6  1  1
  1  8  1  6
  7  8  1  0
  2  9  1  1
  3 10  1  1
  4 11  1  6
  1 12  1  0
  5 12  1  0
  6 13  1  0
M  END
