7P1M_4IU_B_201
     RDKit          3D

 24 26  0  0  0  0  0  0  0  0999 V2000
   46.4720   -8.3220  -27.9690 O   0  0  0  0  0  0  0  0  0  0  0  0
   45.3920   -8.1640  -28.5280 C   0  0  0  0  0  0  0  0  0  0  0  0
   45.3170   -7.6590  -29.7600 O   0  0  0  0  0  0  0  0  0  0  0  0
   44.0820   -8.4090  -27.8630 C   0  0  0  0  0  0  0  0  0  0  0  0
   44.0710   -8.5900  -26.5010 C   0  0  0  0  0  0  0  0  0  0  0  0
   42.8850   -8.8070  -25.8340 C   0  0  0  0  0  0  0  0  0  0  0  0
   41.6740   -8.7850  -26.4660 C   0  0  0  0  0  0  0  0  0  0  0  0
   40.3770   -8.9280  -26.0770 N   0  0  0  0  0  0  0  0  0  0  0  0
   42.8720   -8.4160  -28.5950 C   0  0  0  0  0  0  0  0  0  0  0  0
   41.6630   -8.5890  -27.9170 C   0  0  0  0  0  0  0  0  0  0  0  0
   40.3930   -8.6190  -28.2890 N   0  0  0  0  0  0  0  0  0  0  0  0
   39.9980   -8.4890  -29.7010 C   0  0  0  0  0  0  0  0  0  0  0  0
   39.6110   -8.8480  -27.2170 C   0  0  0  0  0  0  0  0  0  0  0  0
   38.1340   -8.9690  -27.2830 C   0  0  0  0  0  0  0  0  0  0  0  0
   37.5070   -7.7360  -27.5610 O   0  0  0  0  0  0  0  0  0  0  0  0
   36.0770   -7.9080  -27.4870 C   0  0  2  0  0  0  0  0  0  0  0  0
   35.5610   -8.1200  -28.8840 C   0  0  0  0  0  0  0  0  0  0  0  0
   34.4280   -7.6340  -29.3000 C   0  0  0  0  0  0  0  0  0  0  0  0
   33.5830   -6.8220  -28.4530 O   0  0  0  0  0  0  0  0  0  0  0  0
   33.9810   -6.6680  -27.0400 C   0  0  1  0  0  0  0  0  0  0  0  0
   35.5220   -6.6420  -26.9360 C   0  0  2  0  0  0  0  0  0  0  0  0
   36.2190   -5.6010  -27.6820 O   0  0  0  0  0  0  0  0  0  0  0  0
   33.3560   -5.4300  -26.4510 C   0  0  0  0  0  0  0  0  0  0  0  0
   31.9330   -5.6920  -26.3620 O   0  0  0  0  0  0  0  0  0  0  0  0
  1  2  1  0
  2  3  2  0
  2  4  1  0
  4  5  2  0
  5  6  1  0
  6  7  2  0
  7  8  1  0
  4  9  1  0
  7 10  1  0
  9 10  2  0
 10 11  1  0
 11 12  1  0
  8 13  2  0
 11 13  1  0
 13 14  1  0
 14 15  1  0
 16 15  1  6
 16 17  1  0
 17 18  2  0
 18 19  1  0
 19 20  1  0
 16 21  1  0
 20 21  1  0
 21 22  1  6
 20 23  1  6
 23 24  1  0
M  END
$$$$
7P1M_4IU_A_201
     RDKit          3D

 24 26  0  0  0  0  0  0  0  0999 V2000
    4.1460   -0.6230    6.5250 O   0  0  0  0  0  0  0  0  0  0  0  0
    4.2160   -1.5760    5.7660 C   0  0  0  0  0  0  0  0  0  0  0  0
    3.3680   -1.5850    4.7260 O   0  0  0  0  0  0  0  0  0  0  0  0
    5.2280   -2.6850    5.9640 C   0  0  0  0  0  0  0  0  0  0  0  0
    5.4640   -3.5730    4.8840 C   0  0  0  0  0  0  0  0  0  0  0  0
    6.4250   -4.5690    4.9950 C   0  0  0  0  0  0  0  0  0  0  0  0
    7.1560   -4.7650    6.1660 C   0  0  0  0  0  0  0  0  0  0  0  0
    8.1440   -5.6100    6.6030 N   0  0  0  0  0  0  0  0  0  0  0  0
    5.9390   -2.8180    7.1260 C   0  0  0  0  0  0  0  0  0  0  0  0
    6.9180   -3.8170    7.2640 C   0  0  0  0  0  0  0  0  0  0  0  0
    7.7360   -4.1970    8.2430 N   0  0  0  0  0  0  0  0  0  0  0  0
    7.8530   -3.5190    9.5280 C   0  0  0  0  0  0  0  0  0  0  0  0
    8.4690   -5.2550    7.8600 C   0  0  0  0  0  0  0  0  0  0  0  0
    9.4910   -5.9280    8.6800 C   0  0  0  0  0  0  0  0  0  0  0  0
   10.6730   -5.1530    8.6980 O   0  0  0  0  0  0  0  0  0  0  0  0
   11.6580   -5.8180    9.4640 C   0  0  2  0  0  0  0  0  0  0  0  0
   11.5590   -5.4040   10.9110 C   0  0  0  0  0  0  0  0  0  0  0  0
   12.6830   -5.3090   11.6110 C   0  0  0  0  0  0  0  0  0  0  0  0
   13.9940   -5.6340   11.0650 O   0  0  0  0  0  0  0  0  0  0  0  0
   14.1520   -6.1090    9.7530 C   0  0  1  0  0  0  0  0  0  0  0  0
   13.0290   -5.5430    8.9160 C   0  0  2  0  0  0  0  0  0  0  0  0
   13.1140   -4.0950    8.8700 O   0  0  0  0  0  0  0  0  0  0  0  0
   15.4970   -5.8510    9.1770 C   0  0  0  0  0  0  0  0  0  0  0  0
   16.5100   -6.4810    9.9290 O   0  0  0  0  0  0  0  0  0  0  0  0
  1  2  1  0
  2  3  2  0
  2  4  1  0
  4  5  2  0
  5  6  1  0
  6  7  2  0
  7  8  1  0
  4  9  1  0
  7 10  1  0
  9 10  2  0
 10 11  1  0
 11 12  1  0
  8 13  2  0
 11 13  1  0
 13 14  1  0
 14 15  1  0
 16 15  1  6
 16 17  1  0
 17 18  2  0
 18 19  1  0
 19 20  1  0
 16 21  1  0
 20 21  1  0
 21 22  1  1
 20 23  1  6
 23 24  1  0
M  END
$$$$
