1MEH_MOA_A_600
     RDKit          3D

 43 44  0  0  0  0  0  0  0  0999 V2000
   -2.6095   -1.5077   -3.6099 C   0  0  0  0  0  0  0  0  0  0  0  0
    0.3630    0.6260    1.2272 C   0  0  0  0  0  0  0  0  0  0  0  0
   -0.6104    0.1180    2.0166 C   0  0  0  0  0  0  0  0  0  0  0  0
   -0.2568   -0.3434    3.4161 C   0  0  0  0  0  0  0  0  0  0  0  0
   -0.0052    0.8358    4.3644 C   0  0  0  0  0  0  0  0  0  0  0  0
   -1.2502    1.6406    4.5786 C   0  0  0  0  0  0  0  0  0  0  0  0
    1.8375   -2.9523   -2.7262 C   0  0  0  0  0  0  0  0  0  0  0  0
    2.5091   -1.8175    0.2937 C   0  0  0  0  0  0  0  0  0  0  0  0
   -2.0381   -0.0062    1.5436 C   0  0  0  0  0  0  0  0  0  0  0  0
   -0.9496   -3.0445   -4.0604 C   0  0  0  0  0  0  0  0  0  0  0  0
   -0.4922   -2.0448   -3.0313 C   0  0  0  0  0  0  0  0  0  0  0  0
    0.7500   -1.9685   -2.3875 C   0  0  0  0  0  0  0  0  0  0  0  0
    0.9377   -0.9542   -1.4126 C   0  0  0  0  0  0  0  0  0  0  0  0
   -0.0848    0.0054   -1.1669 C   0  0  0  0  0  0  0  0  0  0  0  0
   -1.3129   -0.0780   -1.8672 C   0  0  0  0  0  0  0  0  0  0  0  0
   -1.4875   -1.1299   -2.7747 C   0  0  0  0  0  0  0  0  0  0  0  0
    0.1559    1.1311   -0.1803 C   0  0  0  0  0  0  0  0  0  0  0  0
   -3.7265   -0.9319   -3.6707 O   0  0  0  0  0  0  0  0  0  0  0  0
   -2.2849   -2.6318   -4.3526 O   0  0  0  0  0  0  0  0  0  0  0  0
    2.1385   -0.8633   -0.6974 O   0  0  0  0  0  0  0  0  0  0  0  0
   -2.3143    0.8699   -1.6461 O   0  0  0  0  0  0  0  0  0  0  0  0
   -2.2191    1.1932    5.4711 O   0  0  0  0  0  0  0  0  0  0  0  0
   -1.4372    2.7016    3.9250 O   0  0  0  0  0  0  0  0  0  0  0  0
    1.3722    0.6985    1.6248 H   0  0  0  0  0  0  0  0  0  0  0  0
    0.6561   -0.9770    3.3728 H   0  0  0  0  0  0  0  0  0  0  0  0
   -1.0624   -0.9842    3.8362 H   0  0  0  0  0  0  0  0  0  0  0  0
    0.8051    1.4850    3.9668 H   0  0  0  0  0  0  0  0  0  0  0  0
    0.3360    0.4416    5.3455 H   0  0  0  0  0  0  0  0  0  0  0  0
    1.7876   -3.2471   -3.7948 H   0  0  0  0  0  0  0  0  0  0  0  0
    1.7248   -3.8615   -2.0999 H   0  0  0  0  0  0  0  0  0  0  0  0
    2.8415   -2.5076   -2.5642 H   0  0  0  0  0  0  0  0  0  0  0  0
    2.7538   -2.7946   -0.1659 H   0  0  0  0  0  0  0  0  0  0  0  0
    1.6831   -1.9526    1.0233 H   0  0  0  0  0  0  0  0  0  0  0  0
    3.4050   -1.4486    0.8333 H   0  0  0  0  0  0  0  0  0  0  0  0
   -2.4127    0.9763    1.1890 H   0  0  0  0  0  0  0  0  0  0  0  0
   -2.1027   -0.7545    0.7282 H   0  0  0  0  0  0  0  0  0  0  0  0
   -2.7061   -0.3403    2.3646 H   0  0  0  0  0  0  0  0  0  0  0  0
   -0.9483   -4.0721   -3.6398 H   0  0  0  0  0  0  0  0  0  0  0  0
   -0.3265   -2.9826   -4.9773 H   0  0  0  0  0  0  0  0  0  0  0  0
    1.0728    1.6731   -0.4970 H   0  0  0  0  0  0  0  0  0  0  0  0
   -0.6568    1.8864   -0.1854 H   0  0  0  0  0  0  0  0  0  0  0  0
   -3.2041    0.8547   -2.1242 H   0  0  0  0  0  0  0  0  0  0  0  0
   -3.0741    1.7172    5.6148 H   0  0  0  0  0  0  0  0  0  0  0  0
  2  3  2  0
  3  4  1  0
  4  5  1  0
  5  6  1  0
  3  9  1  0
 10 11  1  0
  7 12  1  0
 11 12  1  0
 12 13  2  0
 13 14  1  0
 14 15  2  0
  1 16  1  0
 11 16  2  0
 15 16  1  0
  2 17  1  0
 14 17  1  0
  1 18  2  0
  1 19  1  0
 10 19  1  0
  8 20  1  0
 13 20  1  0
 15 21  1  0
  6 22  1  0
  6 23  2  0
  2 24  1  0
  4 25  1  0
  4 26  1  0
  5 27  1  0
  5 28  1  0
  7 29  1  0
  7 30  1  0
  7 31  1  0
  8 32  1  0
  8 33  1  0
  8 34  1  0
  9 35  1  0
  9 36  1  0
  9 37  1  0
 10 38  1  0
 10 39  1  0
 17 40  1  0
 17 41  1  0
 21 42  1  0
 22 43  1  0
M  END
