7MRH_ZMJ_A_201
     RDKit          3D

 42 44  0  0  0  0  0  0  0  0999 V2000
    2.4729   -0.3223  -31.6464 C   0  0  0  0  0  0  0  0  0  0  0  0
    3.8344   -2.1132  -30.6596 C   0  0  0  0  0  0  0  0  0  0  0  0
    4.8615   -1.1899  -30.3780 C   0  0  0  0  0  0  0  0  0  0  0  0
    3.5178    0.5916  -31.3620 C   0  0  0  0  0  0  0  0  0  0  0  0
    7.7963    2.9592  -30.9074 C   0  0  0  0  0  0  0  0  0  0  0  0
    8.9080    2.6350  -29.8920 C   0  0  0  0  0  0  0  0  0  0  0  0
    1.2193    0.0545  -33.7040 C   0  0  0  0  0  0  0  0  0  0  0  0
   -0.9386    1.0228  -33.7651 C   0  0  0  0  0  0  0  0  0  0  0  0
   -0.9559    1.1587  -32.3605 C   0  0  0  0  0  0  0  0  0  0  0  0
   -2.0749    1.7232  -31.7011 C   0  0  0  0  0  0  0  0  0  0  0  0
   -2.0861    1.8519  -30.3063 C   0  0  0  0  0  0  0  0  0  0  0  0
   -0.9869    1.4204  -29.5518 C   0  0  0  0  0  0  0  0  0  0  0  0
    0.1314    0.8628  -30.1952 C   0  0  0  0  0  0  0  0  0  0  0  0
    0.1734    0.7168  -31.6087 C   0  0  0  0  0  0  0  0  0  0  0  0
    1.2897    0.1521  -32.2955 C   0  0  0  0  0  0  0  0  0  0  0  0
    0.0929    0.3716  -35.8589 C   0  0  0  0  0  0  0  0  0  0  0  0
    2.6542   -1.6810  -31.2930 C   0  0  0  0  0  0  0  0  0  0  0  0
    4.7046    0.1656  -30.7272 C   0  0  0  0  0  0  0  0  0  0  0  0
    0.1364    0.4916  -34.4170 N   0  0  0  0  0  4  0  0  0  0  0  0
    5.7370    0.9917  -30.4291 N   0  0  0  0  0  0  0  0  0  0  0  0
   -1.9259    1.3992  -34.4289 O   0  0  0  0  0  0  0  0  0  0  0  0
    8.0645    0.2521  -31.5975 O   0  0  0  0  0  0  0  0  0  0  0  0
    6.3133    1.7409  -32.9194 O   0  0  0  0  0  0  0  0  0  0  0  0
    6.9857    1.4285  -31.4989 S   0  0  2  0  0  6  0  0  0  0  0  0
    3.9477   -3.1059  -30.4013 H   0  0  0  0  0  0  0  0  0  0  0  0
    5.7281   -1.5070  -29.9161 H   0  0  0  0  0  0  0  0  0  0  0  0
    3.4096    1.5842  -31.6230 H   0  0  0  0  0  0  0  0  0  0  0  0
    7.0651    3.5842  -30.4387 H   0  0  0  0  0  0  0  0  0  0  0  0
    8.2341    3.4602  -31.7454 H   0  0  0  0  0  0  0  0  0  0  0  0
    8.4843    2.1332  -29.0472 H   0  0  0  0  0  0  0  0  0  0  0  0
    9.6386    2.0034  -30.3526 H   0  0  0  0  0  0  0  0  0  0  0  0
    9.3735    3.5433  -29.5706 H   0  0  0  0  0  0  0  0  0  0  0  0
    2.0144   -0.3618  -34.2134 H   0  0  0  0  0  0  0  0  0  0  0  0
   -2.8875    2.0419  -32.2517 H   0  0  0  0  0  0  0  0  0  0  0  0
   -2.9051    2.2651  -29.8336 H   0  0  0  0  0  0  0  0  0  0  0  0
   -0.9986    1.5119  -28.5239 H   0  0  0  0  0  0  0  0  0  0  0  0
    0.9379    0.5534  -29.6304 H   0  0  0  0  0  0  0  0  0  0  0  0
    1.0073   -0.0605  -36.2086 H   0  0  0  0  0  0  0  0  0  0  0  0
   -0.7279   -0.2545  -36.1401 H   0  0  0  0  0  0  0  0  0  0  0  0
   -0.0326    1.3411  -36.2939 H   0  0  0  0  0  0  0  0  0  0  0  0
    1.9101   -2.3647  -31.5029 H   0  0  0  0  0  0  0  0  0  0  0  0
    5.7667    1.3693  -29.5204 H   0  0  0  0  0  0  0  0  0  0  0  0
  2  3  4  0
  1  4  4  0
  5  6  1  0
  8  9  4  0
  9 10  4  0
 10 11  4  0
 11 12  4  0
 12 13  4  0
  9 14  4  0
 13 14  4  0
  7 15  4  0
  1 15  1  0
 14 15  4  0
  1 17  4  0
  2 17  4  0
  4 18  4  0
  3 18  4  0
 16 19  1  0
  7 19  4  0
  8 19  4  0
 18 20  1  0
  8 21  2  0
 22 24  2  0
  5 24  1  0
 23 24  2  0
 24 20  1  6
  2 25  1  0
  3 26  1  0
  4 27  1  0
  5 28  1  0
  5 29  1  0
  6 30  1  0
  6 31  1  0
  6 32  1  0
  7 33  1  0
 10 34  1  0
 11 35  1  0
 12 36  1  0
 13 37  1  0
 16 38  1  0
 16 39  1  0
 16 40  1  0
 17 41  1  0
 20 42  1  0
M  CHG  1  19   1
M  END
