7MRH_ZMJ_A_201
     RDKit          3D

 24 26  0  0  0  0  0  0  0  0999 V2000
    3.6780   -1.2460  -32.3330 C   0  0  0  0  0  0  0  0  0  0  0  0
    5.1620   -3.1210  -32.8960 C   0  0  0  0  0  0  0  0  0  0  0  0
    6.2830   -2.3660  -32.4960 C   0  0  0  0  0  0  0  0  0  0  0  0
    4.8150   -0.5030  -31.9290 C   0  0  0  0  0  0  0  0  0  0  0  0
    6.5450    1.3240  -29.4260 C   0  0  0  0  0  0  0  0  0  0  0  0
    7.1240    0.2440  -28.4930 C   0  0  0  0  0  0  0  0  0  0  0  0
    1.9320   -0.2630  -30.9430 C   0  0  0  0  0  0  0  0  0  0  0  0
   -0.1260    0.5360  -31.7940 C   0  0  0  0  0  0  0  0  0  0  0  0
    0.2400    0.1810  -33.1100 C   0  0  0  0  0  0  0  0  0  0  0  0
   -0.6390    0.4170  -34.1950 C   0  0  0  0  0  0  0  0  0  0  0  0
   -0.2700    0.0590  -35.4980 C   0  0  0  0  0  0  0  0  0  0  0  0
    0.9750   -0.5380  -35.7370 C   0  0  0  0  0  0  0  0  0  0  0  0
    1.8580   -0.7730  -34.6690 C   0  0  0  0  0  0  0  0  0  0  0  0
    1.5130   -0.4230  -33.3350 C   0  0  0  0  0  0  0  0  0  0  0  0
    2.3820   -0.6500  -32.2260 C   0  0  0  0  0  0  0  0  0  0  0  0
    0.2800    0.7050  -29.4110 C   0  0  0  0  0  0  0  0  0  0  0  0
    3.8720   -2.5650  -32.8090 C   0  0  0  0  0  0  0  0  0  0  0  0
    6.1120   -1.0540  -32.0130 C   0  0  0  0  0  0  0  0  0  0  0  0
    0.7140    0.3260  -30.7390 N   0  0  0  0  0  0  0  0  0  0  0  0
    7.2360   -0.3930  -31.6430 N   0  0  0  0  0  0  0  0  0  0  0  0
   -1.2410    1.0570  -31.5880 O   0  0  0  0  0  0  0  0  0  0  0  0
    6.5010    2.1720  -32.1010 O   0  0  0  0  0  0  0  0  0  0  0  0
    8.8370    1.6270  -30.9710 O   0  0  0  0  0  0  0  0  0  0  0  0
    7.2930    1.2160  -31.0930 S   0  0  0  0  0  0  0  0  0  0  0  0
  2  3  2  0
  1  4  1  0
  5  6  1  0
  8  9  1  0
  9 10  1  0
 10 11  2  0
 11 12  1  0
 12 13  2  0
  9 14  2  0
 13 14  1  0
  7 15  2  0
  1 15  1  0
 14 15  1  0
  1 17  2  0
  2 17  1  0
  4 18  2  0
  3 18  1  0
 16 19  1  0
  7 19  1  0
  8 19  1  0
 18 20  1  0
  8 21  2  0
 22 24  2  0
  5 24  1  0
 23 24  2  0
 20 24  1  0
M  END
$$$$
