7OP9_06K_I_301
     RDKit          3D

 13 14  0  0  0  0  0  0  0  0999 V2000
  -36.7238  -25.9508  -30.9000 C   0  0  0  0  0  0  0  0  0  0  0  0
  -36.1362  -24.3191  -29.3363 C   0  0  0  0  0  0  0  0  0  0  0  0
  -34.8382  -24.3948  -29.7063 C   0  0  0  0  0  0  0  0  0  0  0  0
  -34.4433  -25.2725  -30.7070 C   0  0  0  0  0  0  0  0  0  0  0  0
  -35.0404  -22.9550  -28.1647 C   0  0  0  0  0  0  0  0  0  0  0  0
  -35.4108  -26.0411  -31.2886 N   0  0  0  0  0  0  0  0  0  0  0  0
  -37.0969  -25.0809  -29.9122 N   0  0  0  0  0  0  0  0  0  0  0  0
  -34.1193  -23.5358  -28.9751 N   0  0  0  0  0  0  0  0  0  0  0  0
  -36.3075  -23.4146  -28.3581 N   0  0  0  0  0  0  0  0  0  0  0  0
  -37.9297  -26.9558  -31.6736 Cl  0  0  0  0  0  0  0  0  0  0  0  0
  -32.7722  -25.4046  -31.2197 Cl  0  0  0  0  0  0  0  0  0  0  0  0
  -34.7922  -22.1973  -27.4333 H   0  0  0  0  0  0  0  0  0  0  0  0
  -33.0924  -23.3512  -29.0137 H   0  0  0  0  0  0  0  0  0  0  0  0
  2  3  1  0
  3  4  2  0
  1  6  2  0
  4  6  1  0
  1  7  1  0
  2  7  2  0
  3  8  1  0
  5  8  1  0
  2  9  1  0
  5  9  2  0
  1 10  1  0
  4 11  1  0
  5 12  1  0
  8 13  1  0
M  END
