7OZ9_NGK_BBB_602
     RDKit          3D

 19 19  0  0  0  0  0  0  0  0999 V2000
   70.0155   56.4465   77.3952 C   0  0  1  0  0  0  0  0  0  0  0  0
   68.7626   56.0318   76.7023 C   0  0  1  0  0  0  0  0  0  0  0  0
   68.9661   56.0619   75.2052 C   0  0  2  0  0  0  0  0  0  0  0  0
   69.7602   57.2802   74.7710 C   0  0  2  0  0  0  0  0  0  0  0  0
   71.0850   57.2693   75.4846 C   0  0  1  0  0  0  0  0  0  0  0  0
   71.6437   58.6457   75.7109 C   0  0  0  0  0  0  0  0  0  0  0  0
   67.0829   54.2462   77.2644 C   0  0  0  0  0  0  0  0  0  0  0  0
   66.7433   52.8310   76.8816 C   0  0  0  0  0  0  0  0  0  0  0  0
   68.4276   54.6439   77.0352 N   0  0  0  0  0  0  0  0  0  0  0  0
   70.2919   55.4934   78.4043 O   0  0  0  0  0  0  0  0  0  0  0  0
   67.8203   55.8684   74.4763 O   0  0  0  0  0  0  0  0  0  0  0  0
   69.0653   58.4717   74.9580 O   0  0  0  0  0  0  0  0  0  0  0  0
   71.1383   56.5159   76.6216 O   0  0  0  0  0  0  0  0  0  0  0  0
   72.9072   58.6875   76.2463 O   0  0  0  0  0  0  0  0  0  0  0  0
   66.2139   55.0140   77.7560 O   0  0  0  0  0  0  0  0  0  0  0  0
   68.8381   59.3175   73.5253 S   0  0  2  0  0  0  0  0  0  0  0  0
   67.6148   58.8587   72.7898 O   0  0  0  0  0  0  0  0  0  0  0  0
   70.1508   59.2296   72.4958 O   0  0  0  0  0  0  0  0  0  0  0  0
   68.6303   60.7635   73.8827 O   0  0  0  0  0  0  0  0  0  0  0  0
  1  2  1  0
  2  3  1  0
  3  4  1  0
  4  5  1  0
  5  6  1  1
  7  8  1  0
  2  9  1  1
  7  9  1  0
  1 10  1  1
  3 11  1  6
  4 12  1  1
  1 13  1  0
  5 13  1  0
  6 14  1  0
  7 15  2  0
 12 16  1  0
 16 17  2  0
 16 18  1  6
 16 19  2  0
M  END
$$$$
