
     RDKit          3D

 26 28  0  0  0  0  0  0  0  0999 V2000
   14.9739    3.9857   16.8168 S   0  0  0  0  0  6  0  0  0  0  0  0
   15.8707    5.2099   15.9094 C   0  0  0  0  0  0  0  0  0  0  0  0
   15.2705    6.4353   15.6228 C   0  0  0  0  0  0  0  0  0  0  0  0
   15.9927    7.4096   14.9275 C   0  0  0  0  0  0  0  0  0  0  0  0
   17.3168    7.1687   14.5112 C   0  0  0  0  0  0  0  0  0  0  0  0
   17.9134    5.9434   14.8380 C   0  0  0  0  0  0  0  0  0  0  0  0
   17.1925    4.9651   15.5338 C   0  0  0  0  0  0  0  0  0  0  0  0
   18.0149    8.2006   13.8030 N   0  0  0  0  0  0  0  0  0  0  0  0
   17.9850    8.5648   12.4554 C   0  0  0  0  0  0  0  0  0  0  0  0
   17.0499    8.1098   11.4317 C   0  0  0  0  0  0  0  0  0  0  0  0
   15.8620    8.8106   11.1920 C   0  0  0  0  0  0  0  0  0  0  0  0
   14.9760    8.3804   10.2010 C   0  0  0  0  0  0  0  0  0  0  0  0
   15.2646    7.2448    9.4356 C   0  0  0  0  0  0  0  0  0  0  0  0
   14.3291    6.8035    8.3488 C   0  0  0  0  0  0  0  0  0  0  0  0
   16.4675    6.5637    9.6550 C   0  0  0  0  0  0  0  0  0  0  0  0
   17.3547    6.9931   10.6454 C   0  0  0  0  0  0  0  0  0  0  0  0
   18.9802    9.5119   12.2985 C   0  0  0  0  0  0  0  0  0  0  0  0
   19.5077    9.7509   13.5841 C   0  0  0  0  0  0  0  0  0  0  0  0
   20.5904   10.7326   13.9434 C   0  0  0  0  0  0  0  0  0  0  0  0
   20.4434   11.9113   13.2757 F   0  0  0  0  0  0  0  0  0  0  0  0
   20.5935   11.0417   15.2672 F   0  0  0  0  0  0  0  0  0  0  0  0
   21.8326   10.2733   13.6371 F   0  0  0  0  0  0  0  0  0  0  0  0
   18.8845    8.9905   14.4982 N   0  0  0  0  0  0  0  0  0  0  0  0
   16.0554    2.7014   16.8269 N   0  0  0  0  0  0  0  0  0  0  0  0
   14.8491    4.4082   18.1923 O   0  0  0  0  0  0  0  0  0  0  0  0
   13.8419    3.5462   16.0353 O   0  0  0  0  0  0  0  0  0  0  0  0
  1  2  1  0
  2  3  4  0
  3  4  4  0
  4  5  4  0
  5  6  4  0
  2  7  4  0
  6  7  4  0
  5  8  1  0
  8  9  4  0
  9 10  1  0
 10 11  4  0
 11 12  4  0
 12 13  4  0
 13 14  1  0
 13 15  4  0
 10 16  4  0
 15 16  4  0
  9 17  4  0
 17 18  4  0
 18 19  1  0
 19 20  1  0
 19 21  1  0
 19 22  1  0
  8 23  4  0
 18 23  4  0
  1 24  1  0
  1 25  2  0
  1 26  2  0
M  END
