7M3H_YPV_B_501
     RDKit          3D

 43 44  0  0  0  0  0  0  0  0999 V2000
   -2.5329   -1.1292    1.4208 C   0  0  0  0  0  0  0  0  0  0  0  0
   -1.9022   -2.0710    0.5899 C   0  0  0  0  0  0  0  0  0  0  0  0
   -1.8423   -1.8661   -0.7901 C   0  0  0  0  0  0  0  0  0  0  0  0
    0.5508   -0.3712    2.2362 C   0  0  0  0  0  0  0  0  0  0  0  0
    1.8474    1.2218    0.8193 C   0  0  0  0  0  0  0  0  0  0  0  0
    1.7055   -0.1019    1.4781 C   0  0  0  0  0  0  0  0  0  0  0  0
    2.6892   -1.1106    1.3518 C   0  0  0  0  0  0  0  0  0  0  0  0
    2.5024   -2.3508    1.9786 C   0  0  0  0  0  0  0  0  0  0  0  0
    1.3431   -2.6080    2.7104 C   0  0  0  0  0  0  0  0  0  0  0  0
    0.3571   -1.6247    2.8325 C   0  0  0  0  0  0  0  0  0  0  0  0
   -2.4287   -0.7273   -1.3634 C   0  0  0  0  0  0  0  0  0  0  0  0
   -2.2590   -0.4407   -2.8334 C   0  0  0  0  0  0  0  0  0  0  0  0
   -1.2656    0.7080   -3.0867 C   0  0  0  0  0  0  0  0  0  0  0  0
    0.1445    0.4643   -2.5175 C   0  0  0  0  0  0  0  0  0  0  0  0
    0.8827   -0.6694   -3.2268 C   0  0  0  0  0  0  0  0  0  0  0  0
   -3.1117    0.1817   -0.5407 C   0  0  0  0  0  0  0  0  0  0  0  0
   -3.1671   -0.0214    0.8407 C   0  0  0  0  0  0  0  0  0  0  0  0
   -2.4911   -1.2511    2.8512 N   0  0  0  0  0  0  0  0  0  0  0  0
    0.8155    2.1543    0.8956 O   0  0  0  0  0  0  0  0  0  0  0  0
    3.8459   -0.8903    0.6041 O   0  0  0  0  0  0  0  0  0  0  0  0
   -1.0605   -1.4063    5.0723 O   0  0  0  0  0  0  0  0  0  0  0  0
   -1.3722   -3.4577    3.7681 O   0  0  0  0  0  0  0  0  0  0  0  0
    2.8916    1.5178    0.1788 O   0  0  0  0  0  0  0  0  0  0  0  0
   -1.1490   -1.9735    3.6837 S   0  0  0  0  0  6  0  0  0  0  0  0
   -1.4324   -2.9512    1.0078 H   0  0  0  0  0  0  0  0  0  0  0  0
   -1.3163   -2.5839   -1.4071 H   0  0  0  0  0  0  0  0  0  0  0  0
   -0.2160    0.3850    2.3469 H   0  0  0  0  0  0  0  0  0  0  0  0
    3.2541   -3.1246    1.8878 H   0  0  0  0  0  0  0  0  0  0  0  0
    1.2110   -3.5790    3.1701 H   0  0  0  0  0  0  0  0  0  0  0  0
   -3.2458   -0.1563   -3.2584 H   0  0  0  0  0  0  0  0  0  0  0  0
   -1.9335   -1.3509   -3.3809 H   0  0  0  0  0  0  0  0  0  0  0  0
   -1.6703    1.6394   -2.6349 H   0  0  0  0  0  0  0  0  0  0  0  0
   -1.1941    0.8869   -4.1813 H   0  0  0  0  0  0  0  0  0  0  0  0
    0.0951    0.2520   -1.4286 H   0  0  0  0  0  0  0  0  0  0  0  0
    0.7366    1.3964   -2.6424 H   0  0  0  0  0  0  0  0  0  0  0  0
    0.9162   -0.4853   -4.3217 H   0  0  0  0  0  0  0  0  0  0  0  0
    0.3910   -1.6438   -3.0306 H   0  0  0  0  0  0  0  0  0  0  0  0
    1.9240   -0.7258   -2.8448 H   0  0  0  0  0  0  0  0  0  0  0  0
   -3.5724    1.0648   -0.9658 H   0  0  0  0  0  0  0  0  0  0  0  0
   -3.6650    0.7099    1.4647 H   0  0  0  0  0  0  0  0  0  0  0  0
   -3.1707   -0.7053    3.4267 H   0  0  0  0  0  0  0  0  0  0  0  0
    0.8936    3.0562    0.4407 H   0  0  0  0  0  0  0  0  0  0  0  0
    4.5584   -1.6038    0.5016 H   0  0  0  0  0  0  0  0  0  0  0  0
  1  2  2  0
  2  3  1  0
  4  6  2  0
  5  6  1  0
  6  7  1  0
  7  8  2  0
  8  9  1  0
  4 10  1  0
  9 10  2  0
  3 11  2  0
 11 12  1  0
 12 13  1  0
 13 14  1  0
 14 15  1  0
 11 16  1  0
 16 17  2  0
  1 17  1  0
  1 18  1  0
  5 19  1  0
  7 20  1  0
  5 23  2  0
 21 24  2  0
 22 24  2  0
 18 24  1  0
 10 24  1  0
  2 25  1  0
  3 26  1  0
  4 27  1  0
  8 28  1  0
  9 29  1  0
 12 30  1  0
 12 31  1  0
 13 32  1  0
 13 33  1  0
 14 34  1  0
 14 35  1  0
 15 36  1  0
 15 37  1  0
 15 38  1  0
 16 39  1  0
 17 40  1  0
 18 41  1  0
 19 42  1  0
 20 43  1  0
M  END
