7M3H_YPV_A_501
     RDKit          3D

 24 25  0  0  0  0  0  0  0  0999 V2000
    1.9380    6.7520   17.1350 C   0  0  0  0  0  0  0  0  0  0  0  0
    2.8690    6.4700   16.1640 C   0  0  0  0  0  0  0  0  0  0  0  0
    3.9170    7.3390   15.8720 C   0  0  0  0  0  0  0  0  0  0  0  0
   -2.0930    8.0780   16.6420 C   0  0  0  0  0  0  0  0  0  0  0  0
   -3.5070    9.9640   15.6720 C   0  0  0  0  0  0  0  0  0  0  0  0
   -2.6570    8.7100   15.5530 C   0  0  0  0  0  0  0  0  0  0  0  0
   -2.3730    8.1770   14.3350 C   0  0  0  0  0  0  0  0  0  0  0  0
   -1.5860    7.0890   14.1390 C   0  0  0  0  0  0  0  0  0  0  0  0
   -1.0500    6.4980   15.2610 C   0  0  0  0  0  0  0  0  0  0  0  0
   -1.2880    6.9450   16.5690 C   0  0  0  0  0  0  0  0  0  0  0  0
    4.0690    8.5450   16.5150 C   0  0  0  0  0  0  0  0  0  0  0  0
    5.2170    9.4450   16.1970 C   0  0  0  0  0  0  0  0  0  0  0  0
    6.2380    9.5540   17.3170 C   0  0  0  0  0  0  0  0  0  0  0  0
    6.7320    8.2340   17.9770 C   0  0  0  0  0  0  0  0  0  0  0  0
    7.4340    8.4450   19.3960 C   0  0  0  0  0  0  0  0  0  0  0  0
    3.1320    8.8480   17.5070 C   0  0  0  0  0  0  0  0  0  0  0  0
    2.0780    7.9610   17.7920 C   0  0  0  0  0  0  0  0  0  0  0  0
    0.9340    5.8570   17.4720 N   0  0  0  0  0  0  0  0  0  0  0  0
   -3.7470   10.4560   16.8360 O   0  0  0  0  0  0  0  0  0  0  0  0
   -2.9140    8.7850   13.1960 O   0  0  0  0  0  0  0  0  0  0  0  0
   -0.5580    7.0160   19.0270 O   0  0  0  0  0  0  0  0  0  0  0  0
   -1.1740    4.8420   18.1150 O   0  0  0  0  0  0  0  0  0  0  0  0
   -3.8900   10.5140   14.6070 O   0  0  0  0  0  0  0  0  0  0  0  0
   -0.5700    6.1530   17.8890 S   0  0  0  0  0  0  0  0  0  0  0  0
  1  2  2  0
  2  3  1  0
  4  6  2  0
  5  6  1  0
  6  7  1  0
  7  8  2  0
  8  9  1  0
  4 10  1  0
  9 10  2  0
  3 11  2  0
 11 12  1  0
 12 13  1  0
 13 14  1  0
 14 15  1  0
 11 16  1  0
 16 17  2  0
  1 17  1  0
  1 18  1  0
  5 19  1  0
  7 20  1  0
  5 23  2  0
 21 24  2  0
 22 24  2  0
 18 24  1  0
 10 24  1  0
M  END
$$$$
