7C6P_SQH_A_501
     RDKit          3D

 21 23  0  0  0  0  0  0  0  0999 V2000
    1.4476  -19.1929   -5.9701 C   0  0  0  0  0  0  0  0  0  0  0  0
   -0.7042  -16.0228   -4.0517 C   0  0  0  0  0  0  0  0  0  0  0  0
    0.1180  -16.9275   -3.3779 C   0  0  0  0  0  0  0  0  0  0  0  0
    0.3367  -16.9008   -1.9196 C   0  0  0  0  0  0  0  0  0  0  0  0
   -0.2376  -15.9226   -1.1150 C   0  0  0  0  0  0  0  0  0  0  0  0
    0.0154  -15.9606    0.2448 C   0  0  0  0  0  0  0  0  0  0  0  0
    0.8823  -17.0292    0.7984 C   0  0  0  0  0  0  0  0  0  0  0  0
    1.4296  -17.9831   -0.0412 C   0  0  0  0  0  0  0  0  0  0  0  0
    1.1563  -17.9018   -1.4014 C   0  0  0  0  0  0  0  0  0  0  0  0
    0.6959  -18.0996   -5.3452 C   0  0  0  0  0  0  0  0  0  0  0  0
   -0.1305  -17.2005   -6.1692 C   0  0  0  0  0  0  0  0  0  0  0  0
   -0.1942  -17.4068   -7.5559 C   0  0  0  0  0  0  0  0  0  0  0  0
    0.5291  -18.4546   -8.1612 C   0  0  0  0  0  0  0  0  0  0  0  0
    1.3313  -19.3422   -7.4323 C   0  0  0  0  0  0  0  0  0  0  0  0
   -0.8570  -16.1200   -5.4360 C   0  0  0  0  0  0  0  0  0  0  0  0
    0.7854  -17.9298   -4.0118 O   0  0  0  0  0  0  0  0  0  0  0  0
   -0.5293  -15.0252    1.0667 O   0  0  0  0  0  0  0  0  0  0  0  0
    1.1290  -17.0818    2.1304 O   0  0  0  0  0  0  0  0  0  0  0  0
   -1.5900  -15.3052   -6.0344 O   0  0  0  0  0  0  0  0  0  0  0  0
    2.0204  -20.3526   -8.0135 O   0  0  0  0  0  0  0  0  0  0  0  0
    2.2143  -20.0187   -5.2065 O   0  0  0  0  0  0  0  0  0  0  0  0
  2  3  2  0
  3  4  1  0
  4  5  2  0
  5  6  1  0
  6  7  2  0
  7  8  1  0
  8  9  2  0
  4  9  1  0
  1 10  2  0
 10 11  1  0
 11 12  2  0
 12 13  1  0
  1 14  1  0
 13 14  2  0
  2 15  1  0
 11 15  1  0
  3 16  1  0
 10 16  1  0
  6 17  1  0
  7 18  1  0
 15 19  2  0
 14 20  1  0
  1 21  1  0
M  END
