7TM6_GPJ_A_502
     RDKit          3D

 10  9  0  0  0  0  0  0  0  0999 V2000
   -4.4164   -7.9714   18.4534 P   0  0  1  0  0  0  0  0  0  0  0  0
   -5.6317   -7.8836   19.3499 O   0  0  0  0  0  0  0  0  0  0  0  0
   -4.2406   -9.3628   17.8610 O   0  0  0  0  0  0  0  0  0  0  0  0
   -4.3407   -6.8363   17.4434 O   0  0  0  0  0  0  0  0  0  0  0  0
   -0.0064  -10.3558   17.5735 O   0  0  0  0  0  0  0  0  0  0  0  0
    0.6018  -10.5047   19.6943 O   0  0  0  0  0  0  0  0  0  0  0  0
   -2.9122   -7.7070   19.5006 C   0  0  0  0  0  0  0  0  0  0  0  0
   -0.6722   -8.5721   18.9989 C   0  0  0  0  0  0  0  0  0  0  0  0
    0.0208   -9.9011   18.7408 C   0  0  0  0  0  0  0  0  0  0  0  0
   -2.0348   -8.8701   19.4218 N   0  0  0  0  0  0  0  0  0  0  0  0
  1  2  2  0
  1  3  1  6
  1  4  1  0
  1  7  1  0
  5  9  1  0
  6  9  2  0
  8  9  1  0
  7 10  1  0
  8 10  1  0
M  CHG  1  10   1
M  END
