7T3E_SLB_A_301
     RDKit          3D

 21 21  0  0  0  0  0  0  0  0999 V2000
   13.4730  -24.4060  -24.2930 C   0  0  0  0  0  0  0  0  0  0  0  0
   14.6610  -23.4580  -24.4270 C   0  0  1  0  0  0  0  0  0  0  0  0
   15.9560  -24.0670  -23.9400 C   0  0  0  0  0  0  0  0  0  0  0  0
   17.0220  -23.0300  -23.8610 C   0  0  1  0  0  0  0  0  0  0  0  0
   16.5610  -21.9130  -22.9480 C   0  0  2  0  0  0  0  0  0  0  0  0
   15.2900  -21.3070  -23.5320 C   0  0  2  0  0  0  0  0  0  0  0  0
   14.6950  -20.1950  -22.7070 C   0  0  1  0  0  0  0  0  0  0  0  0
   13.3760  -19.6760  -23.2900 C   0  0  1  0  0  0  0  0  0  0  0  0
   12.8740  -18.4720  -22.5490 C   0  0  0  0  0  0  0  0  0  0  0  0
   18.3370  -20.6890  -21.7110 C   0  0  0  0  0  0  0  0  0  0  0  0
   19.3180  -19.5370  -21.7880 C   0  0  0  0  0  0  0  0  0  0  0  0
   17.5550  -20.8680  -22.8320 N   0  0  0  0  0  0  0  0  0  0  0  0
   12.9250  -24.8060  -25.3640 O   0  0  0  0  0  0  0  0  0  0  0  0
   13.0960  -24.7250  -23.1340 O   0  0  0  0  0  0  0  0  0  0  0  0
   14.7900  -23.0000  -25.7400 O   0  0  0  0  0  0  0  0  0  0  0  0
   18.2410  -23.6310  -23.3650 O   0  0  0  0  0  0  0  0  0  0  0  0
   14.2760  -22.3290  -23.6180 O   0  0  0  0  0  0  0  0  0  0  0  0
   14.4210  -20.6680  -21.3640 O   0  0  0  0  0  0  0  0  0  0  0  0
   13.5610  -19.3880  -24.6780 O   0  0  0  0  0  0  0  0  0  0  0  0
   13.7900  -17.3810  -22.5120 O   0  0  0  0  0  0  0  0  0  0  0  0
   18.2490  -21.4120  -20.7340 O   0  0  0  0  0  0  0  0  0  0  0  0
  1  2  1  0
  2  3  1  0
  3  4  1  0
  4  5  1  0
  5  6  1  0
  6  7  1  0
  7  8  1  0
  8  9  1  0
 10 11  1  0
  5 12  1  6
 10 12  1  0
  1 13  2  0
  1 14  1  0
  2 15  1  6
  4 16  1  1
  2 17  1  0
  6 17  1  1
  7 18  1  1
  8 19  1  6
  9 20  1  0
 10 21  2  0
M  END
$$$$
