6ZT2_QPK_A_303
     RDKit          3D

 13 13  0  0  0  0  0  0  0  0999 V2000
    0.7432    1.2722   -0.8367 C   0  0  0  0  0  0  0  0  0  0  0  0
    1.5454    1.2756    0.3097 C   0  0  0  0  0  0  0  0  0  0  0  0
    1.1527    0.5467    1.4411 C   0  0  0  0  0  0  0  0  0  0  0  0
   -0.0460   -0.1864    1.4227 C   0  0  0  0  0  0  0  0  0  0  0  0
   -0.8437   -0.1848    0.2712 C   0  0  0  0  0  0  0  0  0  0  0  0
   -0.4490    0.5432   -0.8555 C   0  0  0  0  0  0  0  0  0  0  0  0
   -0.4546   -0.9178    2.5372 O   0  0  0  0  0  0  0  0  0  0  0  0
   -2.0023   -0.8896    0.2446 F   0  0  0  0  0  0  0  0  0  0  0  0
    1.9321    0.5512    2.5523 F   0  0  0  0  0  0  0  0  0  0  0  0
    3.0409    2.1952    0.3212 Cl  0  0  0  0  0  0  0  0  0  0  0  0
    1.0424    1.8335   -1.7127 H   0  0  0  0  0  0  0  0  0  0  0  0
   -1.0669    0.5431   -1.7442 H   0  0  0  0  0  0  0  0  0  0  0  0
    0.0927   -0.9455    3.3892 H   0  0  0  0  0  0  0  0  0  0  0  0
  1  2  2  0
  2  3  1  0
  3  4  2  0
  4  5  1  0
  1  6  1  0
  5  6  2  0
  4  7  1  0
  5  8  1  0
  3  9  1  0
  2 10  1  0
  1 11  1  0
  6 12  1  0
  7 13  1  0
M  END
