6T88_MWQ_A_608
     RDKit          3D

 18 18  0  0  0  0  0  0  0  0999 V2000
  -12.0701  -49.6714   -6.6617 O   0  0  0  0  0  0  0  0  0  0  0  0
  -11.7096  -50.7262   -7.2597 C   0  0  0  0  0  0  0  0  0  0  0  0
  -11.0770  -50.6832   -8.3571 O   0  0  0  0  0  0  0  0  0  0  0  0
  -12.0726  -52.0661   -6.6523 C   0  0  0  0  0  0  0  0  0  0  0  0
  -10.8886  -52.8147   -6.0297 C   0  0  0  0  0  0  0  0  0  0  0  0
  -11.2899  -54.2404   -5.6726 C   0  0  0  0  0  0  0  0  0  0  0  0
  -12.4122  -54.6483   -4.9994 C   0  0  0  0  0  0  0  0  0  0  0  0
  -12.3451  -55.9805   -4.9317 N   0  0  0  0  0  0  0  0  0  0  0  0
  -11.2321  -56.3934   -5.5227 C   0  0  0  0  0  0  0  0  0  0  0  0
  -10.6000  -55.3313   -5.9819 N   0  0  0  0  0  4  0  0  0  0  0  0
  -10.8205  -51.4783   -8.7814 H   0  0  0  0  0  0  0  0  0  0  0  0
  -12.4914  -52.6808   -7.4214 H   0  0  0  0  0  0  0  0  0  0  0  0
  -12.7625  -51.8676   -5.8588 H   0  0  0  0  0  0  0  0  0  0  0  0
  -10.5755  -52.3042   -5.1431 H   0  0  0  0  0  0  0  0  0  0  0  0
  -10.0872  -52.8469   -6.7381 H   0  0  0  0  0  0  0  0  0  0  0  0
  -13.1599  -54.0462   -4.6204 H   0  0  0  0  0  0  0  0  0  0  0  0
  -10.9166  -57.3722   -5.6082 H   0  0  0  0  0  0  0  0  0  0  0  0
   -9.7490  -55.3452   -6.4769 H   0  0  0  0  0  0  0  0  0  0  0  0
  1  2  2  0
  2  3  1  0
  2  4  1  0
  4  5  1  0
  5  6  1  0
  6  7  4  0
  7  8  4  0
  8  9  4  0
  9 10  4  0
  6 10  4  0
  3 11  1  0
  4 12  1  0
  4 13  1  0
  5 14  1  0
  5 15  1  0
  7 16  1  0
  9 17  1  0
 10 18  1  0
M  CHG  1  10   1
M  END
