1SG0_STL_B_502
     RDKit          3D

 17 18  0  0  0  0  0  0  0  0999 V2000
   32.2540   16.9310   30.8630 C   0  0  0  0  0  0  0  0  0  0  0  0
   31.6740   16.1320   31.9040 C   0  0  0  0  0  0  0  0  0  0  0  0
   32.5180   15.4030   32.8040 C   0  0  0  0  0  0  0  0  0  0  0  0
   33.9470   15.4510   32.6560 C   0  0  0  0  0  0  0  0  0  0  0  0
   34.5420   16.2400   31.6200 C   0  0  0  0  0  0  0  0  0  0  0  0
   33.6860   16.9870   30.7170 C   0  0  0  0  0  0  0  0  0  0  0  0
   36.0000   16.2490   31.4920 C   0  0  0  0  0  0  0  0  0  0  0  0
   36.6650   17.0320   30.5270 C   0  0  0  0  0  0  0  0  0  0  0  0
   38.1080   17.0280   30.3600 C   0  0  0  0  0  0  0  0  0  0  0  0
   38.9830   16.2110   31.1730 C   0  0  0  0  0  0  0  0  0  0  0  0
   40.4060   16.2420   30.9490 C   0  0  0  0  0  0  0  0  0  0  0  0
   40.9530   17.0860   29.9200 C   0  0  0  0  0  0  0  0  0  0  0  0
   40.0820   17.8940   29.1270 C   0  0  0  0  0  0  0  0  0  0  0  0
   38.6720   17.8610   29.3480 C   0  0  0  0  0  0  0  0  0  0  0  0
   42.2880   17.1250   29.6860 O   0  0  0  0  0  0  0  0  0  0  0  0
   31.9660   14.6410   33.7920 O   0  0  0  0  0  0  0  0  0  0  0  0
   31.4570   17.6140   30.0270 O   0  0  0  0  0  0  0  0  0  0  0  0
  1  2  2  0
  2  3  1  0
  3  4  2  0
  4  5  1  0
  1  6  1  0
  5  6  2  0
  5  7  1  0
  7  8  2  0
  8  9  1  0
  9 10  2  0
 10 11  1  0
 11 12  2  0
 12 13  1  0
  9 14  1  0
 13 14  2  0
 12 15  1  0
  3 16  1  0
  1 17  1  0
M  END
$$$$
