8AEU_M0L_A_302
     RDKit          3D

 71 75  0  0  0  0  0  0  0  0999 V2000
    1.5097    2.7214   -1.5156 O   0  0  0  0  0  0  0  0  0  0  0  0
   -0.6913    2.0498   -1.1268 N   0  0  0  0  0  0  0  0  0  0  0  0
   -4.3105    1.0913    3.3325 O   0  0  0  0  0  0  0  0  0  0  0  0
    1.5446   -0.7436    1.4696 N   0  0  0  0  0  0  0  0  0  0  0  0
    1.3234    0.8334   -0.1643 N   0  0  0  0  0  0  0  0  0  0  0  0
    4.7821   -3.5630   -0.7660 C   0  0  0  0  0  0  0  0  0  0  0  0
    3.7597   -4.2985   -1.3729 C   0  0  0  0  0  0  0  0  0  0  0  0
    4.7735    1.0144   -1.5334 C   0  0  0  0  0  0  0  0  0  0  0  0
    5.4795    0.9005   -2.7346 C   0  0  0  0  0  0  0  0  0  0  0  0
    2.9221   -0.2018   -2.5085 C   0  0  0  0  0  0  0  0  0  0  0  0
   -1.1235   -2.0201    1.2163 O   0  0  0  0  0  0  0  0  0  0  0  0
    3.6310   -0.3180   -3.7072 C   0  0  0  0  0  0  0  0  0  0  0  0
    2.4324   -3.8767   -1.2547 C   0  0  0  0  0  0  0  0  0  0  0  0
    2.1255   -2.7221   -0.5302 C   0  0  0  0  0  0  0  0  0  0  0  0
    3.4802    0.4752   -1.4092 C   0  0  0  0  0  0  0  0  0  0  0  0
    4.9086    0.2355   -3.8229 C   0  0  0  0  0  0  0  0  0  0  0  0
   -2.9802   -3.1956    0.1773 C   0  0  0  0  0  0  0  0  0  0  0  0
   -2.1598    1.8368    2.5645 C   0  0  0  0  0  0  0  0  0  0  0  0
    2.7621    0.5747   -0.0693 C   0  0  2  0  0  0  0  0  0  0  0  0
    4.4792   -2.4082   -0.0391 C   0  0  0  0  0  0  0  0  0  0  0  0
   -0.9300    1.6059    1.9476 C   0  0  0  0  0  0  0  0  0  0  0  0
   -1.1877   -0.2543   -1.7563 C   0  0  0  0  0  0  0  0  0  0  0  0
   -1.6066    0.9480   -1.3445 C   0  0  0  0  0  0  0  0  0  0  0  0
    4.1434   -5.7416   -2.2927 Cl  0  0  0  0  0  0  0  0  0  0  0  0
    0.7392    1.8930   -0.9569 C   0  0  0  0  0  0  0  0  0  0  0  0
   -1.0003   -4.4167    1.1149 C   0  0  0  0  0  0  0  0  0  0  0  0
    5.7989    0.0841   -5.3263 Cl  0  0  0  0  0  0  0  0  0  0  0  0
    3.1473   -1.9786    0.0943 C   0  0  0  0  0  0  0  0  0  0  0  0
    2.8533   -0.6837    0.8328 C   0  0  2  0  0  0  0  0  0  0  0  0
    0.7313    0.0820    0.9015 C   0  0  0  0  0  0  0  0  0  0  0  0
   -3.0805    0.7990    2.7246 C   0  0  0  0  0  0  0  0  0  0  0  0
   -2.7463   -0.4934    2.2787 C   0  0  0  0  0  0  0  0  0  0  0  0
   -1.5022   -0.7405    1.6636 C   0  0  0  0  0  0  0  0  0  0  0  0
   -0.6001    0.3261    1.4843 C   0  0  0  0  0  0  0  0  0  0  0  0
   -1.9174   -3.2061    1.2799 C   0  0  0  0  0  0  0  0  0  0  0  0
   -5.3501    0.1420    3.5451 C   0  0  0  0  0  0  0  0  0  0  0  0
   -1.2182    3.4078   -1.3448 C   0  0  0  0  0  0  0  0  0  0  0  0
   -2.5471    3.6146   -0.6091 C   0  0  0  0  0  0  0  0  0  0  0  0
   -3.4933    2.5436   -0.9089 N   0  0  0  0  0  0  0  0  0  0  0  0
   -3.0517    1.2092   -1.1719 C   0  0  0  0  0  0  0  0  0  0  0  0
   -3.8994    0.2799   -1.2649 O   0  0  0  0  0  0  0  0  0  0  0  0
    5.8126   -3.8807   -0.8631 H   0  0  0  0  0  0  0  0  0  0  0  0
    5.2398    1.5202   -0.6973 H   0  0  0  0  0  0  0  0  0  0  0  0
    6.4727    1.3236   -2.8153 H   0  0  0  0  0  0  0  0  0  0  0  0
    1.9539   -0.6634   -2.4365 H   0  0  0  0  0  0  0  0  0  0  0  0
    3.1891   -0.8464   -4.5422 H   0  0  0  0  0  0  0  0  0  0  0  0
    1.6380   -4.4367   -1.7320 H   0  0  0  0  0  0  0  0  0  0  0  0
    1.0938   -2.4013   -0.4776 H   0  0  0  0  0  0  0  0  0  0  0  0
   -2.4990   -3.1840   -0.8233 H   0  0  0  0  0  0  0  0  0  0  0  0
   -3.6291   -2.3007    0.2643 H   0  0  0  0  0  0  0  0  0  0  0  0
   -3.6216   -4.0985    0.2584 H   0  0  0  0  0  0  0  0  0  0  0  0
   -2.4016    2.8313    2.9173 H   0  0  0  0  0  0  0  0  0  0  0  0
    3.2017    1.4247    0.5019 H   0  0  0  0  0  0  0  0  0  0  0  0
    5.2851   -1.8407    0.4099 H   0  0  0  0  0  0  0  0  0  0  0  0
   -0.2291    2.4249    1.8409 H   0  0  0  0  0  0  0  0  0  0  0  0
   -0.1499   -0.4570   -1.9352 H   0  0  0  0  0  0  0  0  0  0  0  0
   -1.8841   -1.0601   -1.9443 H   0  0  0  0  0  0  0  0  0  0  0  0
   -0.2248   -4.4114    1.9099 H   0  0  0  0  0  0  0  0  0  0  0  0
   -1.5839   -5.3579    1.2001 H   0  0  0  0  0  0  0  0  0  0  0  0
   -0.4946   -4.3917    0.1256 H   0  0  0  0  0  0  0  0  0  0  0  0
    3.6219   -0.5251    1.6218 H   0  0  0  0  0  0  0  0  0  0  0  0
   -3.4506   -1.2978    2.4175 H   0  0  0  0  0  0  0  0  0  0  0  0
   -2.4022   -3.2902    2.2764 H   0  0  0  0  0  0  0  0  0  0  0  0
   -5.6887   -0.2774    2.5740 H   0  0  0  0  0  0  0  0  0  0  0  0
   -4.9938   -0.6716    4.2120 H   0  0  0  0  0  0  0  0  0  0  0  0
   -6.2085    0.6484    4.0314 H   0  0  0  0  0  0  0  0  0  0  0  0
   -1.3687    3.5685   -2.4347 H   0  0  0  0  0  0  0  0  0  0  0  0
   -0.5016    4.1755   -0.9782 H   0  0  0  0  0  0  0  0  0  0  0  0
   -2.9859    4.5886   -0.9133 H   0  0  0  0  0  0  0  0  0  0  0  0
   -2.3679    3.6495    0.4831 H   0  0  0  0  0  0  0  0  0  0  0  0
   -4.5142    2.7253   -0.7792 H   0  0  0  0  0  0  0  0  0  0  0  0
  6  7  2  0
  8  9  2  0
 10 12  1  0
  7 13  1  0
 13 14  2  0
 10 15  2  0
  8 15  1  0
 12 16  2  0
  9 16  1  0
  5 19  1  0
 19 15  1  0
  6 20  1  0
 18 21  2  0
  2 23  1  0
 22 23  2  0
  7 24  1  0
  2 25  1  0
  1 25  2  0
  5 25  1  0
 16 27  1  0
 14 28  1  0
 20 28  2  0
  4 29  1  0
 19 29  1  0
 29 28  1  0
  5 30  1  0
  4 30  2  0
  3 31  1  0
 18 31  1  0
 31 32  2  0
 32 33  1  0
 11 33  1  0
 33 34  2  0
 21 34  1  0
 30 34  1  0
 26 35  1  0
 11 35  1  0
 17 35  1  0
  3 36  1  0
  2 37  1  0
 37 38  1  0
 38 39  1  0
 39 40  1  0
 23 40  1  0
 40 41  2  0
  6 42  1  0
  8 43  1  0
  9 44  1  0
 10 45  1  0
 12 46  1  0
 13 47  1  0
 14 48  1  0
 17 49  1  0
 17 50  1  0
 17 51  1  0
 18 52  1  0
 19 53  1  1
 20 54  1  0
 21 55  1  0
 22 56  1  0
 22 57  1  0
 26 58  1  0
 26 59  1  0
 26 60  1  0
 29 61  1  1
 32 62  1  0
 35 63  1  0
 36 64  1  0
 36 65  1  0
 36 66  1  0
 37 67  1  0
 37 68  1  0
 38 69  1  0
 38 70  1  0
 39 71  1  0
M  END
