
     RDKit          3D

 52 54  0  0  0  0  0  0  0  0999 V2000
  190.4388    6.0873   91.0470 O   0  0  0  0  0  0  0  0  0  0  0  0
  191.1177    4.9277   90.4074 P   0  0  0  0  0  5  0  0  0  0  0  0
  192.6775    5.0994   90.1459 O   0  0  0  0  0  0  0  0  0  0  0  0
  190.5982    4.5289   88.9557 O   0  0  0  0  0  0  0  0  0  0  0  0
  191.0568    3.5356   91.1965 O   0  0  0  0  0  0  0  0  0  0  0  0
  191.9902    3.2956   92.2307 C   0  0  1  0  0  0  0  0  0  0  0  0
  191.8258    4.1733   93.4649 C   0  0  1  0  0  0  0  0  0  0  0  0
  190.4332    4.4693   93.7074 O   0  0  0  0  0  0  0  0  0  0  0  0
  192.4205    3.2926   94.5767 C   0  0  2  0  0  0  0  0  0  0  0  0
  193.8302    3.5341   94.8245 N   0  0  0  0  0  0  0  0  0  0  0  0
  194.3254    4.3148   95.8337 C   0  0  0  0  0  0  0  0  0  0  0  0
  193.6287    4.9759   96.7747 N   0  0  0  0  0  0  0  0  0  0  0  0
  194.4609    5.6633   97.5838 C   0  0  0  0  0  0  0  0  0  0  0  0
  195.8087    5.7451   97.5287 N   0  0  0  0  0  0  0  0  0  0  0  0
  196.4570    5.0499   96.5704 C   0  0  0  0  0  0  0  0  0  0  0  0
  197.8415    5.1335   96.5173 N   0  0  0  0  0  0  0  0  0  0  0  0
  195.6997    4.2959   95.6582 C   0  0  0  0  0  0  0  0  0  0  0  0
  196.0444    3.5229   94.5659 N   0  0  0  0  0  0  0  0  0  0  0  0
  194.8986    3.0515   94.1175 C   0  0  0  0  0  0  0  0  0  0  0  0
  192.2489    1.9198   94.1554 O   0  0  0  0  0  0  0  0  0  0  0  0
  191.7654    1.8998   92.8013 C   0  0  2  0  0  0  0  0  0  0  0  0
  192.4861    0.8327   91.9795 C   0  0  0  0  0  0  0  0  0  0  0  0
  193.8785    0.9199   92.2250 O   0  0  0  0  0  0  0  0  0  0  0  0
  194.8893    0.7033   91.0057 P   0  0  1  0  0  5  0  0  0  0  0  0
  194.0215   -0.2106   90.0046 O   0  0  0  0  0  0  0  0  0  0  0  0
  195.3642    1.9338   90.3033 O   0  0  0  0  0  0  0  0  0  0  0  0
  195.9917   -0.3166   91.4983 O   0  0  0  0  0  0  0  0  0  0  0  0
  197.5192    0.0353   91.7059 P   0  0  1  0  0  5  0  0  0  0  0  0
  198.2684    0.2977   90.4379 O   0  0  0  0  0  0  0  0  0  0  0  0
  197.4562    1.2894   92.6998 O   0  0  0  0  0  0  0  0  0  0  0  0
  198.1105   -1.1193   92.6520 O   0  0  0  0  0  0  0  0  0  0  0  0
  197.4155   -1.3901   93.8571 C   0  0  0  0  0  0  0  0  0  0  0  0
  198.4025   -1.7936   94.9763 C   0  0  0  0  0  0  0  0  0  0  0  0
  197.6243   -1.8535   96.3059 C   0  0  0  0  0  0  0  0  0  0  0  0
  198.9285   -3.2186   94.6842 C   0  0  0  0  0  0  0  0  0  0  0  0
  199.6035   -0.8012   95.0980 C   0  0  1  0  0  0  0  0  0  0  0  0
  199.1646    0.5185   95.4278 O   0  0  0  0  0  0  0  0  0  0  0  0
  200.7078   -1.3131   96.0597 C   0  0  0  0  0  0  0  0  0  0  0  0
  201.6425   -2.0158   95.6812 O   0  0  0  0  0  0  0  0  0  0  0  0
  200.5418   -0.9457   97.3782 N   0  0  0  0  0  0  0  0  0  0  0  0
  201.6214   -0.9916   98.3426 C   0  0  0  0  0  0  0  0  0  0  0  0
  202.0460   -2.4133   98.6957 C   0  0  0  0  0  0  0  0  0  0  0  0
  200.9681   -3.2091   99.4093 C   0  0  0  0  0  0  0  0  0  0  0  0
  200.8634   -3.2958  100.6285 O   0  0  0  0  0  0  0  0  0  0  0  0
  200.1236   -3.8521   98.5273 N   0  0  0  0  0  0  0  0  0  0  0  0
  198.9597   -4.6152   98.9627 C   0  0  0  0  0  0  0  0  0  0  0  0
  199.3650   -5.9453   99.6028 C   0  0  0  0  0  0  0  0  0  0  0  0
  198.0475   -6.5642  100.7032 S   0  0  0  0  0  0  0  0  0  0  0  0
  198.4790   -8.2675  100.6744 C   0  0  0  0  0  0  0  0  0  0  0  0
  199.6402   -8.6286  100.5318 O   0  0  0  0  0  0  0  0  0  0  0  0
  197.3035   -9.2114  100.7843 C   0  0  0  0  0  0  0  0  0  0  0  0
  197.1148  -10.0174   99.5081 C   0  0  0  0  0  0  0  0  0  0  0  0
  1  2  2  0
  2  3  1  0
  2  4  1  0
  2  5  1  0
  6  5  1  6
  6  7  1  0
  7  8  1  1
  7  9  1  0
  9 10  1  6
 10 11  4  0
 11 12  4  0
 12 13  4  0
 13 14  4  0
 14 15  4  0
 15 16  1  0
 11 17  4  0
 15 17  4  0
 17 18  4  0
 18 19  4  0
 10 19  4  0
  9 20  1  0
  6 21  1  0
 20 21  1  0
 21 22  1  6
 22 23  1  0
 24 23  1  0
 24 25  1  6
 24 26  2  0
 24 27  1  0
 28 27  1  0
 28 29  2  0
 28 30  1  1
 28 31  1  0
 31 32  1  0
 32 33  1  0
 33 34  1  0
 33 35  1  0
 33 36  1  0
 36 37  1  1
 36 38  1  0
 38 39  2  0
 38 40  1  0
 40 41  1  0
 41 42  1  0
 42 43  1  0
 43 44  2  0
 43 45  1  0
 45 46  1  0
 46 47  1  0
 47 48  1  0
 48 49  1  0
 49 50  2  0
 49 51  1  0
 51 52  1  0
M  END
