7BJ6_TVK_A_207
     RDKit          3D

 37 41  0  0  0  0  0  0  0  0999 V2000
  -19.2781   -7.8192   18.1043 C   0  0  0  0  0  0  0  0  0  0  0  0
  -19.5296   -8.9323   17.1149 C   0  0  2  0  0  0  0  0  0  0  0  0
  -21.7521   -9.3525   14.2127 C   0  0  1  0  0  0  0  0  0  0  0  0
  -23.5776  -10.8904   15.2574 C   0  0  0  0  0  0  0  0  0  0  0  0
  -23.9584  -12.0330   13.0840 C   0  0  0  0  0  0  0  0  0  0  0  0
  -24.7940  -12.5003   12.0670 C   0  0  0  0  0  0  0  0  0  0  0  0
  -26.1557  -12.2973   12.1841 C   0  0  0  0  0  0  0  0  0  0  0  0
  -26.6620  -11.6474   13.2841 C   0  0  0  0  0  0  0  0  0  0  0  0
  -23.7713   -8.3923   15.0061 C   0  0  0  0  0  0  0  0  0  0  0  0
  -24.8745   -8.2361   15.6180 O   0  0  0  0  0  0  0  0  0  0  0  0
  -23.3406   -6.0275   14.1593 C   0  0  0  0  0  0  0  0  0  0  0  0
  -21.4028   -5.7370   12.8680 C   0  0  0  0  0  0  0  0  0  0  0  0
  -21.0630   -7.0718   13.0482 C   0  0  0  0  0  0  0  0  0  0  0  0
  -21.8689   -7.9318   13.8046 C   0  0  0  0  0  0  0  0  0  0  0  0
  -22.9231   -3.7853   13.2447 C   0  0  1  0  0  0  0  0  0  0  0  0
  -22.3003   -3.2018   12.0077 C   0  0  0  0  0  0  0  0  0  0  0  0
  -24.4369   -3.7017   13.1454 C   0  0  0  0  0  0  0  0  0  0  0  0
  -22.1578  -10.8237   10.8084 C   0  0  0  0  0  0  0  0  0  0  0  0
  -20.7066  -11.3612   13.0981 C   0  0  0  0  0  0  0  0  0  0  0  0
  -19.2717  -10.3425   17.4052 C   0  0  0  0  0  0  0  0  0  0  0  0
  -18.2756   -9.6001   16.6113 C   0  0  0  0  0  0  0  0  0  0  0  0
  -18.8456   -6.6430   17.5113 O   0  0  0  0  0  0  0  0  0  0  0  0
  -20.6485   -8.6107   16.1285 C   0  0  0  0  0  0  0  0  0  0  0  0
  -20.8029   -9.5865   15.1997 O   0  0  0  0  0  0  0  0  0  0  0  0
  -23.0545   -9.6002   14.8428 N   0  0  0  0  0  0  0  0  0  0  0  0
  -24.4867  -11.3781   14.1890 C   0  0  0  0  0  0  0  0  0  0  0  0
  -27.2095  -12.8794   10.9152 Cl  0  0  0  0  0  0  0  0  0  0  0  0
  -25.8165  -11.2281   14.2145 N   0  0  0  0  0  0  0  0  0  0  0  0
  -23.0017   -7.3543   14.3365 C   0  0  0  0  0  0  0  0  0  0  0  0
  -22.5329   -5.2103   13.4178 C   0  0  0  0  0  0  0  0  0  0  0  0
  -19.9353   -7.4870   12.4323 F   0  0  0  0  0  0  0  0  0  0  0  0
  -22.5359   -3.0179   14.3475 O   0  0  0  0  0  0  0  0  0  0  0  0
  -21.5555  -10.2800   13.0751 C   0  0  0  0  0  0  0  0  0  0  0  0
  -22.2952   -9.9990   11.9206 C   0  0  0  0  0  0  0  0  0  0  0  0
  -21.3075  -11.8997   10.8427 C   0  0  0  0  0  0  0  0  0  0  0  0
  -21.1725  -12.9038    9.4169 Cl  0  0  0  0  0  0  0  0  0  0  0  0
  -20.5709  -12.1828   11.9872 C   0  0  0  0  0  0  0  0  0  0  0  0
  2  1  1  1
  5  6  2  0
  6  7  1  0
  7  8  2  0
  9 10  2  0
 12 13  1  0
 13 14  2  0
  3 14  1  0
 16 15  1  6
 17 15  1  6
 20  2  1  6
  2 21  1  0
 21 20  1  6
  1 22  1  1
  2 23  1  0
  3 24  1  1
 23 24  1  1
  3 25  1  0
  9 25  1  0
  4 25  1  6
  5 26  1  0
  4 26  1  0
  7 27  1  0
  8 28  1  0
 26 28  2  0
 14 29  1  0
 11 29  2  0
  9 29  1  0
 12 30  2  0
 15 30  1  0
 11 30  1  0
 13 31  1  0
 15 32  1  1
 19 33  2  0
  3 33  1  0
 18 34  2  0
 33 34  1  0
 18 35  1  0
 35 36  1  0
 35 37  2  0
 19 37  1  0
M  END
$$$$
