7P85_5ZG_A_401
     RDKit          3D

 29 29  0  0  0  0  0  0  0  0999 V2000
    0.2770   -0.3415    0.9831 C   0  0  0  0  0  0  0  0  0  0  0  0
   -0.2167    0.8103    0.3499 C   0  0  0  0  0  0  0  0  0  0  0  0
   -1.5610    1.1687    0.4851 C   0  0  0  0  0  0  0  0  0  0  0  0
   -2.4341    0.3699    1.2388 C   0  0  0  0  0  0  0  0  0  0  0  0
   -1.9399   -0.7766    1.8790 C   0  0  0  0  0  0  0  0  0  0  0  0
   -0.5957   -1.1357    1.7435 C   0  0  0  0  0  0  0  0  0  0  0  0
    1.7122   -0.7495    0.8053 C   0  0  0  0  0  0  0  0  0  0  0  0
   -3.8675    0.7753    1.4148 C   0  0  0  0  0  0  0  0  0  0  0  0
    2.0975   -0.1534   -2.4993 C   0  0  0  0  0  0  0  0  0  0  0  0
    1.4323    0.6145   -3.6307 C   0  0  0  0  0  0  0  0  0  0  0  0
    1.8725   -1.8605   -0.6299 P   0  0  2  0  0  5  0  0  0  0  0  0
    1.2039   -1.1310   -2.0216 O   0  0  0  0  0  0  0  0  0  0  0  0
    1.0213   -3.2885   -0.3133 O   0  0  0  0  0  0  0  0  0  0  0  0
    3.3314   -2.1984   -0.8485 O   0  0  0  0  0  0  0  0  0  0  0  0
    0.4387    1.4318   -0.2472 H   0  0  0  0  0  0  0  0  0  0  0  0
   -1.9215    2.0669   -0.0011 H   0  0  0  0  0  0  0  0  0  0  0  0
   -2.5959   -1.3949    2.4793 H   0  0  0  0  0  0  0  0  0  0  0  0
   -0.2348   -2.0329    2.2313 H   0  0  0  0  0  0  0  0  0  0  0  0
    2.0795   -1.2753    1.7122 H   0  0  0  0  0  0  0  0  0  0  0  0
    2.3544    0.1440    0.6570 H   0  0  0  0  0  0  0  0  0  0  0  0
   -3.9586    1.4317    2.3052 H   0  0  0  0  0  0  0  0  0  0  0  0
   -4.5129   -0.1178    1.5552 H   0  0  0  0  0  0  0  0  0  0  0  0
   -4.2319    1.3247    0.5207 H   0  0  0  0  0  0  0  0  0  0  0  0
    2.3686    0.5782   -1.7059 H   0  0  0  0  0  0  0  0  0  0  0  0
    3.0191   -0.6321   -2.8989 H   0  0  0  0  0  0  0  0  0  0  0  0
    0.5126    1.1150   -3.2595 H   0  0  0  0  0  0  0  0  0  0  0  0
    2.1289    1.3856   -4.0223 H   0  0  0  0  0  0  0  0  0  0  0  0
    1.1627   -0.0795   -4.4549 H   0  0  0  0  0  0  0  0  0  0  0  0
    1.4250   -3.6470    0.5172 H   0  0  0  0  0  0  0  0  0  0  0  0
  1  2  2  0
  2  3  1  0
  3  4  2  0
  4  5  1  0
  1  6  1  0
  5  6  2  0
  1  7  1  0
  4  8  1  0
  9 10  1  0
  7 11  1  0
 11 12  1  6
  9 12  1  0
 11 13  1  0
 11 14  2  0
  2 15  1  0
  3 16  1  0
  5 17  1  0
  6 18  1  0
  7 19  1  0
  7 20  1  0
  8 21  1  0
  8 22  1  0
  8 23  1  0
  9 24  1  0
  9 25  1  0
 10 26  1  0
 10 27  1  0
 10 28  1  0
 13 29  1  0
M  END
