7XFA_D9J_A_301
     RDKit          3D

 60 64  0  0  0  0  0  0  0  0999 V2000
    2.1212   -3.1070   -0.4779 F   0  0  0  0  0  0  0  0  0  0  0  0
    1.3294   -4.2389   -0.4233 C   0  0  1  0  0  0  0  0  0  0  0  0
    1.1127   -4.7006   -1.7079 F   0  0  0  0  0  0  0  0  0  0  0  0
    2.0123   -5.2256    0.2672 F   0  0  0  0  0  0  0  0  0  0  0  0
    0.0197   -3.8992    0.2600 C   0  0  0  0  0  0  0  0  0  0  0  0
   -0.4465   -2.5702    0.2411 C   0  0  0  0  0  0  0  0  0  0  0  0
   -1.6614   -2.2305    0.8395 C   0  0  0  0  0  0  0  0  0  0  0  0
   -2.4436   -3.2136    1.4449 C   0  0  0  0  0  0  0  0  0  0  0  0
   -3.9752   -2.7847    2.1852 Cl  0  0  0  0  0  0  0  0  0  0  0  0
   -2.0131   -4.5412    1.4496 C   0  0  0  0  0  0  0  0  0  0  0  0
   -0.7869   -4.8969    0.8666 C   0  0  0  0  0  0  0  0  0  0  0  0
   -0.3779   -6.2730    0.8867 N   0  0  0  0  0  4  0  0  0  0  0  0
   -1.2230   -7.2854    0.8182 N   0  0  0  0  0  0  0  0  0  0  0  0
   -0.4645   -8.3948    0.8970 C   0  0  0  0  0  0  0  0  0  0  0  0
   -1.0148   -9.7766    0.8017 C   0  0  0  0  0  0  0  0  0  0  0  0
    0.8535   -8.1226    1.0030 N   0  0  0  0  0  0  0  0  0  0  0  0
    0.8751   -6.7749    0.9886 C   0  0  0  0  0  0  0  0  0  0  0  0
    2.1460   -5.9559    1.1221 C   0  0  2  0  0  0  0  0  0  0  0  0
    1.8936   -4.4097    1.1808 C   0  0  1  0  0  0  0  0  0  0  0  0
    2.5175   -3.8396    2.3057 O   0  0  0  0  0  0  0  0  0  0  0  0
    3.1368   -6.3768    0.1859 O   0  0  0  0  0  0  0  0  0  0  0  0
    3.1077   -5.7920   -1.1186 C   0  0  1  0  0  0  0  0  0  0  0  0
    2.9096   -6.8777   -2.1873 C   0  0  0  0  0  0  0  0  0  0  0  0
    4.1198   -7.1251   -2.8494 O   0  0  0  0  0  0  0  0  0  0  0  0
    2.1641   -4.5795   -1.3100 C   0  0  1  0  0  0  0  0  0  0  0  0
    0.8249   -4.9905   -1.4402 O   0  0  0  0  0  0  0  0  0  0  0  0
    2.3325   -3.6702   -0.0961 C   0  0  1  0  0  0  0  0  0  0  0  0
    1.6079   -2.4037   -0.2625 N   0  0  0  0  0  4  0  0  0  0  0  0
    0.7435   -1.8239    0.5921 C   0  0  0  0  0  0  0  0  0  0  0  0
    1.7332   -1.6174   -1.3199 N   0  0  0  0  0  0  0  0  0  0  0  0
    0.9774   -0.5372   -1.1864 N   0  0  0  0  0  0  0  0  0  0  0  0
    0.3480   -0.6390    0.0035 C   0  0  0  0  0  0  0  0  0  0  0  0
   -0.5850    0.3755    0.5479 C   0  0  0  0  0  0  0  0  0  0  0  0
   -0.3502    1.7520    0.3689 C   0  0  0  0  0  0  0  0  0  0  0  0
   -1.2422    2.6971    0.8854 C   0  0  0  0  0  0  0  0  0  0  0  0
   -0.9979    4.0187    0.7005 F   0  0  0  0  0  0  0  0  0  0  0  0
   -2.3791    2.2804    1.5873 C   0  0  0  0  0  0  0  0  0  0  0  0
   -3.4986    3.4686    2.2364 Cl  0  0  0  0  0  0  0  0  0  0  0  0
   -2.6220    0.9140    1.7698 C   0  0  0  0  0  0  0  0  0  0  0  0
   -3.7206    0.4983    2.4482 F   0  0  0  0  0  0  0  0  0  0  0  0
   -1.7316   -0.0322    1.2527 C   0  0  0  0  0  0  0  0  0  0  0  0
    0.1284   -1.7875   -0.2375 H   0  0  0  0  0  0  0  0  0  0  0  0
   -1.9980   -1.2014    0.8235 H   0  0  0  0  0  0  0  0  0  0  0  0
   -2.6425   -5.3021    1.8925 H   0  0  0  0  0  0  0  0  0  0  0  0
   -1.1810  -10.0342   -0.2653 H   0  0  0  0  0  0  0  0  0  0  0  0
   -1.9794   -9.8368    1.3488 H   0  0  0  0  0  0  0  0  0  0  0  0
   -0.3017  -10.5028    1.2466 H   0  0  0  0  0  0  0  0  0  0  0  0
    2.5522   -6.2481    2.1120 H   0  0  0  0  0  0  0  0  0  0  0  0
    0.8062   -4.2386    1.3061 H   0  0  0  0  0  0  0  0  0  0  0  0
    3.4878   -4.0408    2.2432 H   0  0  0  0  0  0  0  0  0  0  0  0
    4.1368   -5.4012   -1.2862 H   0  0  0  0  0  0  0  0  0  0  0  0
    2.1396   -6.5718   -2.9254 H   0  0  0  0  0  0  0  0  0  0  0  0
    2.5645   -7.8132   -1.6923 H   0  0  0  0  0  0  0  0  0  0  0  0
    3.9279   -7.8298   -3.5214 H   0  0  0  0  0  0  0  0  0  0  0  0
    2.4821   -4.0089   -2.2159 H   0  0  0  0  0  0  0  0  0  0  0  0
    0.6472   -5.1075   -2.4097 H   0  0  0  0  0  0  0  0  0  0  0  0
    3.4184   -3.4320   -0.0111 H   0  0  0  0  0  0  0  0  0  0  0  0
    0.4402   -2.2259    1.5467 H   0  0  0  0  0  0  0  0  0  0  0  0
    0.5172    2.1042   -0.1724 H   0  0  0  0  0  0  0  0  0  0  0  0
   -1.9392   -1.0840    1.4061 H   0  0  0  0  0  0  0  0  0  0  0  0
  2  1  1  1
  2  3  1  0
  2  4  1  0
  2  5  1  0
  5  6  4  0
  6  7  4  0
  7  8  4  0
  8  9  1  0
  8 10  4  0
 10 11  4  0
  5 11  4  0
 11 12  1  0
 12 13  4  0
 13 14  4  0
 14 15  1  0
 14 16  4  0
 16 17  4  0
 12 17  4  0
 18 17  1  0
 18 19  1  0
 19 20  1  0
 18 21  1  0
 21 22  1  0
 22 23  1  0
 23 24  1  0
 22 25  1  0
 25 26  1  0
 25 27  1  0
 19 27  1  0
 27 28  1  0
 28 29  4  0
 28 30  4  0
 30 31  4  0
 29 32  4  0
 31 32  4  0
 32 33  1  0
 33 34  4  0
 34 35  4  0
 35 36  1  0
 35 37  4  0
 37 38  1  0
 37 39  4  0
 39 40  1  0
 39 41  4  0
 33 41  4  0
  6 42  1  0
  7 43  1  0
 10 44  1  0
 15 45  1  0
 15 46  1  0
 15 47  1  0
 18 48  1  6
 19 49  1  6
 20 50  1  0
 22 51  1  1
 23 52  1  0
 23 53  1  0
 24 54  1  0
 25 55  1  1
 26 56  1  0
 27 57  1  6
 29 58  1  0
 34 59  1  0
 41 60  1  0
M  CHG  2  12   1  28   1
M  END
