7V8Z_5YH_A_601
     RDKit          3D

 25 28  0  0  0  0  0  0  0  0999 V2000
   -8.4214   28.5103  -29.6422 C   0  0  0  0  0  0  0  0  0  0  0  0
   -9.2556   30.2704  -27.2990 C   0  0  0  0  0  0  0  0  0  0  0  0
   -8.5886   30.9823  -25.0983 C   0  0  0  0  0  0  0  0  0  0  0  0
   -7.4602   30.2010  -25.2118 C   0  0  0  0  0  0  0  0  0  0  0  0
   -6.5297   28.1615  -27.9635 C   0  0  0  0  0  0  0  0  0  0  0  0
   -5.6348   27.2701  -28.5049 C   0  0  0  0  0  0  0  0  0  0  0  0
   -4.5089   26.8777  -27.8193 C   0  0  0  0  0  0  0  0  0  0  0  0
   -5.1001   28.2420  -26.0012 C   0  0  0  0  0  0  0  0  0  0  0  0
   -8.0858   29.5336  -30.7170 C   0  0  2  0  0  0  0  0  0  0  0  0
   -8.7964   29.3744  -32.0219 C   0  0  0  0  0  0  0  0  0  0  0  0
   -7.8221   31.7244  -32.7680 C   0  0  0  0  0  0  0  0  0  0  0  0
   -8.2103   32.5586  -33.9535 C   0  0  0  0  0  0  0  0  0  0  0  0
   -9.2786   30.5608  -34.1715 C   0  0  0  0  0  0  0  0  0  0  0  0
   -8.1266   29.4816  -27.4280 C   0  0  0  0  0  0  0  0  0  0  0  0
   -9.4784   31.0130  -26.1395 C   0  0  0  0  0  0  0  0  0  0  0  0
   -7.2583   29.4745  -26.3659 C   0  0  0  0  0  0  0  0  0  0  0  0
   -6.2276   28.6310  -26.6956 C   0  0  0  0  0  0  0  0  0  0  0  0
   -4.2100   27.3481  -26.5573 C   0  0  0  0  0  0  0  0  0  0  0  0
   -8.7575   31.6846  -23.9506 F   0  0  0  0  0  0  0  0  0  0  0  0
   -3.0858   26.9262  -25.9303 F   0  0  0  0  0  0  0  0  0  0  0  0
   -8.5834   30.5280  -32.8898 N   0  0  0  0  0  0  0  0  0  0  0  0
   -8.6454   31.5838  -34.9240 N   0  0  0  0  0  0  0  0  0  0  0  0
   -7.6623   28.6577  -28.4282 N   0  0  0  0  0  0  0  0  0  0  0  0
   -6.7027   29.1978  -31.0775 O   0  0  0  0  0  0  0  0  0  0  0  0
  -10.2385   29.8353  -34.5356 O   0  0  0  0  0  0  0  0  0  0  0  0
  3  4  1  0
  5  6  2  0
  6  7  1  0
  1  9  1  0
  9 10  1  0
 11 12  1  0
  2 14  2  0
  2 15  1  0
  3 15  2  0
 14 16  1  0
  4 16  2  0
  5 17  1  0
 16 17  1  0
  8 17  2  0
  7 18  2  0
  8 18  1  0
  3 19  1  0
 18 20  1  0
 13 21  1  0
 11 21  1  0
 10 21  1  0
 13 22  1  0
 12 22  1  0
  1 23  1  0
 14 23  1  0
  5 23  1  0
  9 24  1  6
 13 25  2  0
M  END
$$$$
