7JMV_4NC_A_301
     RDKit          3D

 16 16  0  0  0  0  0  0  0  0999 V2000
   34.0299  -26.6398   -6.4530 C   0  0  0  0  0  0  0  0  0  0  0  0
   35.4133  -26.5713   -6.6858 C   0  0  0  0  0  0  0  0  0  0  0  0
   36.1880  -25.6229   -6.0077 C   0  0  0  0  0  0  0  0  0  0  0  0
   35.5958  -24.7334   -5.0917 C   0  0  0  0  0  0  0  0  0  0  0  0
   34.2107  -24.8113   -4.8669 C   0  0  0  0  0  0  0  0  0  0  0  0
   33.4351  -25.7570   -5.5425 C   0  0  0  0  0  0  0  0  0  0  0  0
   33.2531  -27.5821   -7.1252 O   0  0  0  0  0  0  0  0  0  0  0  0
   36.0359  -27.4357   -7.5859 O   0  0  0  0  0  0  0  0  0  0  0  0
   36.3927  -23.7582   -4.3944 N   0  0  0  0  0  4  0  0  0  0  0  0
   37.6236  -23.6839   -4.5897 O   0  0  0  0  0  0  0  0  0  0  0  0
   35.8102  -22.8900   -3.4994 O   0  0  0  0  0  1  0  0  0  0  0  0
   37.2529  -25.5838   -6.1991 H   0  0  0  0  0  0  0  0  0  0  0  0
   33.7258  -24.1414   -4.1688 H   0  0  0  0  0  0  0  0  0  0  0  0
   32.3695  -25.8029   -5.3570 H   0  0  0  0  0  0  0  0  0  0  0  0
   32.2534  -27.6509   -6.9741 H   0  0  0  0  0  0  0  0  0  0  0  0
   35.5202  -28.1390   -8.1012 H   0  0  0  0  0  0  0  0  0  0  0  0
  1  2  2  0
  2  3  1  0
  3  4  2  0
  4  5  1  0
  1  6  1  0
  5  6  2  0
  1  7  1  0
  2  8  1  0
  4  9  1  0
  9 10  2  0
  9 11  1  0
  3 12  1  0
  5 13  1  0
  6 14  1  0
  7 15  1  0
  8 16  1  0
M  CHG  2   9   1  11  -1
M  END
