1U1C_BAU_F_5051
     RDKit          3D

 36 37  0  0  0  0  0  0  0  0999 V2000
   -1.7745    0.8613    4.9972 O   0  0  0  0  0  0  0  0  0  0  0  0
   -0.5817    0.2612    4.5714 C   0  0  0  0  0  0  0  0  0  0  0  0
   -0.6335   -0.0141    3.0679 C   0  0  0  0  0  0  0  0  0  0  0  0
    0.5220   -0.7221    2.6588 O   0  0  0  0  0  0  0  0  0  0  0  0
    1.5102    0.1599    2.1601 C   0  0  0  0  0  0  0  0  0  0  0  0
    1.2172    0.5237    0.7628 N   0  0  0  0  0  0  0  0  0  0  0  0
    0.9615    1.8188    0.3904 C   0  0  0  0  0  0  0  0  0  0  0  0
    0.9803    2.7495    1.2422 O   0  0  0  0  0  0  0  0  0  0  0  0
    0.6791    2.1148   -0.9075 N   0  0  0  0  0  0  0  0  0  0  0  0
    0.6426    1.1477   -1.8611 C   0  0  0  0  0  0  0  0  0  0  0  0
    0.3652    1.4575   -3.0516 O   0  0  0  0  0  0  0  0  0  0  0  0
    1.1944   -0.4684   -0.1749 C   0  0  0  0  0  0  0  0  0  0  0  0
    0.9126   -0.1837   -1.5153 C   0  0  0  0  0  0  0  0  0  0  0  0
    0.8392   -1.3010   -2.5266 C   0  0  0  0  0  0  0  0  0  0  0  0
   -0.5562   -1.8623   -2.5832 C   0  0  0  0  0  0  0  0  0  0  0  0
   -1.4861   -1.3645   -3.5117 C   0  0  0  0  0  0  0  0  0  0  0  0
   -2.7922   -1.8632   -3.5370 C   0  0  0  0  0  0  0  0  0  0  0  0
   -3.1813   -2.8550   -2.6325 C   0  0  0  0  0  0  0  0  0  0  0  0
   -2.2654   -3.3485   -1.6995 C   0  0  0  0  0  0  0  0  0  0  0  0
   -0.9581   -2.8530   -1.6710 C   0  0  0  0  0  0  0  0  0  0  0  0
   -1.7337    1.8103    4.7077 H   0  0  0  0  0  0  0  0  0  0  0  0
   -0.4548   -0.6994    5.1142 H   0  0  0  0  0  0  0  0  0  0  0  0
    0.2873    0.9116    4.8187 H   0  0  0  0  0  0  0  0  0  0  0  0
   -1.5161   -0.6558    2.8607 H   0  0  0  0  0  0  0  0  0  0  0  0
   -0.7975    0.9353    2.5068 H   0  0  0  0  0  0  0  0  0  0  0  0
    1.6424    1.0501    2.8165 H   0  0  0  0  0  0  0  0  0  0  0  0
    2.4872   -0.3684    2.1910 H   0  0  0  0  0  0  0  0  0  0  0  0
    0.4809    3.1062   -1.1758 H   0  0  0  0  0  0  0  0  0  0  0  0
    1.3903   -1.4939    0.1190 H   0  0  0  0  0  0  0  0  0  0  0  0
    1.1512   -0.9379   -3.5301 H   0  0  0  0  0  0  0  0  0  0  0  0
    1.5581   -2.1059   -2.2574 H   0  0  0  0  0  0  0  0  0  0  0  0
   -1.2006   -0.5918   -4.2144 H   0  0  0  0  0  0  0  0  0  0  0  0
   -3.5038   -1.4786   -4.2562 H   0  0  0  0  0  0  0  0  0  0  0  0
   -4.1931   -3.2388   -2.6526 H   0  0  0  0  0  0  0  0  0  0  0  0
   -2.5691   -4.1131   -0.9963 H   0  0  0  0  0  0  0  0  0  0  0  0
   -0.2607   -3.2392   -0.9381 H   0  0  0  0  0  0  0  0  0  0  0  0
  1  2  1  0
  2  3  1  0
  3  4  1  0
  4  5  1  0
  5  6  1  0
  6  7  1  0
  7  8  2  0
  7  9  1  0
  9 10  1  0
 10 11  2  0
  6 12  1  0
 10 13  1  0
 12 13  2  0
 13 14  1  0
 14 15  1  0
 15 16  2  0
 16 17  1  0
 17 18  2  0
 18 19  1  0
 15 20  1  0
 19 20  2  0
  1 21  1  0
  2 22  1  0
  2 23  1  0
  3 24  1  0
  3 25  1  0
  5 26  1  0
  5 27  1  0
  9 28  1  0
 12 29  1  0
 14 30  1  0
 14 31  1  0
 16 32  1  0
 17 33  1  0
 18 34  1  0
 19 35  1  0
 20 36  1  0
M  END
