7ZL5_IWE_AAA_303
     RDKit          3D

 23 25  0  0  0  0  0  0  0  0999 V2000
    6.3286   33.9471   51.5732 N   0  0  0  0  0  0  0  0  0  0  0  0
    4.1277   32.8235   47.1173 C   0  0  0  0  0  0  0  0  0  0  0  0
    4.0920   34.1968   47.2447 C   0  0  0  0  0  0  0  0  0  0  0  0
    4.5197   34.8185   48.4108 C   0  0  0  0  0  0  0  0  0  0  0  0
    4.9977   34.0176   49.4726 C   0  0  0  0  0  0  0  0  0  0  0  0
    5.5495   34.6015   50.7157 C   0  0  0  0  0  0  0  0  0  0  0  0
    4.9928   32.6294   49.3241 C   0  0  0  0  0  0  0  0  0  0  0  0
    3.6727   37.1124   47.7660 C   0  0  0  0  0  0  0  0  0  0  0  0
    4.4401   29.7363   49.4025 O   0  0  0  0  0  0  0  0  0  0  0  0
    4.0531   38.5434   47.9446 C   0  0  0  0  0  0  0  0  0  0  0  0
    4.9563   40.7065   48.7508 C   0  0  0  0  0  0  0  0  0  0  0  0
    4.5933   40.7015   47.4500 C   0  0  0  0  0  0  0  0  0  0  0  0
    6.2403   36.0645   52.1582 N   0  0  0  0  0  0  0  0  0  0  0  0
    4.0699   39.4708   47.0048 C   0  0  0  0  0  0  0  0  0  0  0  0
    6.7236   34.8746   52.4353 N   0  0  0  0  0  0  0  0  0  0  0  0
    3.3945   32.1662   45.6932 Cl  0  0  0  0  0  0  0  0  0  0  0  0
    5.5083   35.9193   51.0609 N   0  0  0  0  0  0  0  0  0  0  0  0
    4.5765   32.0083   48.1586 C   0  0  0  0  0  0  0  0  0  0  0  0
    4.7041   30.2402   48.0686 S   0  0  1  0  0  0  0  0  0  0  0  0
    6.1954   29.9278   47.6778 N   0  0  0  0  0  0  0  0  0  0  0  0
    3.7939   29.8525   47.0305 O   0  0  0  0  0  0  0  0  0  0  0  0
    4.5460   36.2145   48.4958 N   0  0  0  0  0  0  0  0  0  0  0  0
    4.6682   39.2121   49.4402 S   0  0  0  0  0  0  0  0  0  0  0  0
  2  3  2  0
  3  4  1  0
  4  5  2  0
  5  6  1  0
  1  6  1  0
  5  7  1  0
  8 10  1  0
 11 12  2  0
 12 14  1  0
 10 14  2  0
  1 15  1  0
 13 15  2  0
  2 16  1  0
  6 17  2  0
 13 17  1  0
  2 18  1  0
  7 18  2  0
  9 19  2  0
 18 19  1  0
 19 20  1  6
 19 21  2  0
  4 22  1  0
  8 22  1  0
 10 23  1  0
 11 23  1  0
M  END
