8CSD_C5P_B_501
     RDKit          3D

 21 22  0  0  0  0  0  0  0  0999 V2000
   15.8520   68.8710   33.3690 O   0  0  0  0  0  0  0  0  0  0  0  0
   14.8760   69.9760   32.9870 P   0  0  0  0  0  0  0  0  0  0  0  0
   14.7280   70.1940   31.4850 O   0  0  0  0  0  0  0  0  0  0  0  0
   13.5790   70.0970   33.7840 O   0  0  0  0  0  0  0  0  0  0  0  0
   15.8210   71.4190   33.4580 O   0  0  0  0  0  0  0  0  0  0  0  0
   16.8990   71.8500   32.7550 C   0  0  0  0  0  0  0  0  0  0  0  0
   17.1180   73.4370   33.1160 C   0  0  1  0  0  0  0  0  0  0  0  0
   15.9370   74.1860   32.8510 O   0  0  0  0  0  0  0  0  0  0  0  0
   17.3010   73.5730   34.6030 C   0  0  1  0  0  0  0  0  0  0  0  0
   18.5950   73.4690   35.1150 O   0  0  0  0  0  0  0  0  0  0  0  0
   16.8050   75.0490   34.8410 C   0  0  1  0  0  0  0  0  0  0  0  0
   17.8650   75.8610   34.4960 O   0  0  0  0  0  0  0  0  0  0  0  0
   15.6540   75.1550   33.7660 C   0  0  2  0  0  0  0  0  0  0  0  0
   14.2920   74.8920   34.3760 N   0  0  0  0  0  0  0  0  0  0  0  0
   13.6110   76.0170   35.0640 C   0  0  0  0  0  0  0  0  0  0  0  0
   12.3420   75.6960   35.6210 N   0  0  0  0  0  0  0  0  0  0  0  0
   11.7110   74.4500   35.5350 C   0  0  0  0  0  0  0  0  0  0  0  0
   12.4290   73.3990   34.8480 C   0  0  0  0  0  0  0  0  0  0  0  0
   13.6820   73.6530   34.3230 C   0  0  0  0  0  0  0  0  0  0  0  0
   14.1610   77.1050   35.1340 O   0  0  0  0  0  0  0  0  0  0  0  0
   10.4700   74.2710   36.0780 N   0  0  0  0  0  0  0  0  0  0  0  0
  1  2  1  0
  2  3  2  0
  2  4  1  0
  2  5  1  0
  5  6  1  0
  7  6  1  1
  7  8  1  0
  7  9  1  0
  9 10  1  6
  9 11  1  0
 11 12  1  6
  8 13  1  0
 11 13  1  0
 13 14  1  1
 14 15  1  0
 15 16  1  0
 16 17  2  0
 17 18  1  0
 14 19  1  0
 18 19  2  0
 15 20  2  0
 17 21  1  0
M  END
$$$$
8CSD_C5P_A_501
     RDKit          3D

 21 22  0  0  0  0  0  0  0  0999 V2000
   13.2450   21.3610   22.8970 O   0  0  0  0  0  0  0  0  0  0  0  0
   12.9830   21.4890   21.4210 P   0  0  0  0  0  0  0  0  0  0  0  0
   13.7290   22.5860   20.7130 O   0  0  0  0  0  0  0  0  0  0  0  0
   11.5280   21.2490   21.0550 O   0  0  0  0  0  0  0  0  0  0  0  0
   13.6520   19.9910   20.7030 O   0  0  0  0  0  0  0  0  0  0  0  0
   14.8860   19.6030   20.9410 C   0  0  0  0  0  0  0  0  0  0  0  0
   14.9960   18.0390   20.5740 C   0  0  1  0  0  0  0  0  0  0  0  0
   13.9850   17.2800   21.2090 O   0  0  0  0  0  0  0  0  0  0  0  0
   14.7280   17.8510   19.0800 C   0  0  1  0  0  0  0  0  0  0  0  0
   15.8300   17.8930   18.2360 O   0  0  0  0  0  0  0  0  0  0  0  0
   14.1410   16.3950   19.0510 C   0  0  1  0  0  0  0  0  0  0  0  0
   15.2190   15.5010   19.0200 O   0  0  0  0  0  0  0  0  0  0  0  0
   13.4260   16.3260   20.4020 C   0  0  2  0  0  0  0  0  0  0  0  0
   11.8950   16.6250   20.2830 N   0  0  0  0  0  0  0  0  0  0  0  0
   11.0510   15.5170   19.9170 C   0  0  0  0  0  0  0  0  0  0  0  0
    9.6440   15.7640   19.8150 N   0  0  0  0  0  0  0  0  0  0  0  0
    9.0950   16.9820   20.0710 C   0  0  0  0  0  0  0  0  0  0  0  0
   10.0240   18.1030   20.4110 C   0  0  0  0  0  0  0  0  0  0  0  0
   11.3770   17.8770   20.4790 C   0  0  0  0  0  0  0  0  0  0  0  0
   11.6050   14.4550   19.7150 O   0  0  0  0  0  0  0  0  0  0  0  0
    7.7060   17.1580   19.9480 N   0  0  0  0  0  0  0  0  0  0  0  0
  1  2  1  0
  2  3  2  0
  2  4  1  0
  2  5  1  0
  5  6  1  0
  7  6  1  1
  7  8  1  0
  7  9  1  0
  9 10  1  6
  9 11  1  0
 11 12  1  1
  8 13  1  0
 11 13  1  0
 13 14  1  6
 14 15  1  0
 15 16  1  0
 16 17  2  0
 17 18  1  0
 14 19  1  0
 18 19  2  0
 15 20  2  0
 17 21  1  0
M  END
$$$$
