7MAE_XUS_A_101
     RDKit          3D

 49 52  0  0  0  0  0  0  0  0999 V2000
   20.6893   -0.4970   15.4676 C   0  0  1  0  0  0  0  0  0  0  0  0
   20.2694   -0.5304   16.9244 C   0  0  2  0  0  0  0  0  0  0  0  0
   22.5221   -0.1093   17.8730 C   0  0  0  0  0  0  0  0  0  0  0  0
   24.2346    1.0059   19.1704 C   0  0  1  0  0  0  0  0  0  0  0  0
   24.0275    2.1132   18.1592 C   0  0  0  0  0  0  0  0  0  0  0  0
   24.7663    3.0904   20.0484 C   0  0  1  0  0  0  0  0  0  0  0  0
   22.8241    3.6972   21.0063 C   0  0  0  0  0  0  0  0  0  0  0  0
   18.8309   -0.2498   17.0923 C   0  0  0  0  0  0  0  0  0  0  0  0
   15.9072   -5.4722   13.0721 C   0  0  0  0  0  0  0  0  0  0  0  0
   17.0063   -6.1554   13.5478 C   0  0  0  0  0  0  0  0  0  0  0  0
   17.9394   -5.5712   14.3984 C   0  0  0  0  0  0  0  0  0  0  0  0
   17.7823   -4.2413   14.8034 C   0  0  0  0  0  0  0  0  0  0  0  0
   16.6773   -3.5792   14.3157 C   0  0  0  0  0  0  0  0  0  0  0  0
   15.7512   -4.1558   13.4727 C   0  0  0  0  0  0  0  0  0  0  0  0
   21.1826   -3.8625   14.4307 C   0  0  0  0  0  0  0  0  0  0  0  0
   20.1659   -1.6212   14.6766 C   0  0  0  0  0  0  0  0  0  0  0  0
   24.1144    1.7872   20.4518 C   0  0  1  0  0  0  0  0  0  0  0  0
   22.7222    2.2063   20.7963 C   0  0  0  0  0  0  0  0  0  0  0  0
   18.6277    0.7532   18.1667 C   0  0  0  0  0  0  0  0  0  0  0  0
   18.6760    2.1140   17.9635 C   0  0  0  0  0  0  0  0  0  0  0  0
   18.4871    3.0341   18.9735 C   0  0  0  0  0  0  0  0  0  0  0  0
   18.2354    2.6224   20.2636 C   0  0  0  0  0  0  0  0  0  0  0  0
   18.1826    1.2605   20.4901 C   0  0  0  0  0  0  0  0  0  0  0  0
   18.3718    0.3469   19.4785 C   0  0  0  0  0  0  0  0  0  0  0  0
   23.2857   -4.9533   12.4103 C   0  0  0  0  0  0  0  0  0  0  0  0
   22.6666   -3.7528   14.5436 C   0  0  2  0  0  0  0  0  0  0  0  0
   23.4984   -4.7843   13.8814 C   0  0  0  0  0  0  0  0  0  0  0  0
   23.1734   -3.6080   15.9676 C   0  0  0  0  0  0  0  0  0  0  0  0
   19.1852    4.1889   21.8190 C   0  0  0  0  0  0  0  0  0  0  0  0
   16.7303    4.4632   24.3495 C   0  0  0  0  0  0  0  0  0  0  0  0
   20.9604    5.0914   24.4319 C   0  0  0  0  0  0  0  0  0  0  0  0
   16.0465    3.6835   25.4401 C   0  0  0  0  0  0  0  0  0  0  0  0
   22.1112    5.6763   25.2017 C   0  0  0  0  0  0  0  0  0  0  0  0
   20.3588   -2.9573   15.0635 N   0  0  0  0  0  0  0  0  0  0  0  0
   21.1411    0.2143   17.7928 N   0  0  0  0  0  0  0  0  0  0  0  0
   14.9416   -6.0459   12.2026 N   0  0  0  0  0  0  0  0  0  0  0  0
   18.2126   -2.2918   16.4699 O   0  0  0  0  0  0  0  0  0  0  0  0
   19.2312   -4.3974   17.0164 O   0  0  0  0  0  0  0  0  0  0  0  0
   20.3182    0.7223   14.9050 O   0  0  0  0  0  0  0  0  0  0  0  0
   23.1367   -0.5000   16.8462 O   0  0  0  0  0  0  0  0  0  0  0  0
   23.2643   -0.0221   19.0421 O   0  0  0  0  0  0  0  0  0  0  0  0
   24.7904    3.1515   18.6812 O   0  0  0  0  0  0  0  0  0  0  0  0
   24.0961    4.1006   20.6849 O   0  0  0  0  0  0  0  0  0  0  0  0
   18.0432    3.5383   21.2899 O   0  0  0  0  0  0  0  0  0  0  0  0
   18.1126    4.3198   24.4142 O   0  0  0  0  0  0  0  0  0  0  0  0
   20.1543    6.0379   23.8149 O   0  0  0  0  0  0  0  0  0  0  0  0
   17.7568    6.3241   22.7031 O   0  0  0  0  0  0  0  0  0  0  0  0
   18.7481    5.3179   23.1776 P   0  0  1  0  0  0  0  0  0  0  0  0
   18.9558   -3.5002   15.8650 S   0  0  1  0  0  0  0  0  0  0  0  0
  1  2  1  0
  4  5  1  0
  2  8  1  6
  9 10  2  0
 10 11  1  0
 11 12  2  0
 12 13  1  0
  9 14  1  0
 13 14  2  0
  1 16  1  0
  4 17  1  0
  6 17  1  0
  7 18  1  0
 17 18  1  6
  8 19  1  0
 19 20  2  0
 20 21  1  0
 21 22  2  0
 22 23  1  0
 19 24  1  0
 23 24  2  0
 15 26  1  0
 26 27  1  0
 25 27  1  0
 26 28  1  1
 30 32  1  0
 31 33  1  0
 15 34  1  0
 16 34  1  0
  2 35  1  0
  3 35  1  0
  9 36  1  0
  1 39  1  6
  3 40  2  0
  3 41  1  0
  4 41  1  1
  5 42  1  0
  6 42  1  6
  7 43  1  0
  6 43  1  0
 22 44  1  0
 29 44  1  0
 30 45  1  0
 31 46  1  0
 48 29  1  6
 47 48  2  0
 45 48  1  0
 46 48  1  0
 12 49  1  0
 49 34  1  6
 37 49  2  0
 38 49  2  0
M  END
$$$$
