7WJB_BGC_A_802
     RDKit          3D

 12 12  0  0  0  0  0  0  0  0999 V2000
   54.4450   22.4680   14.0050 C   0  0  2  0  0  0  0  0  0  0  0  0
   54.0420   22.0190   15.4020 C   0  0  2  0  0  0  0  0  0  0  0  0
   53.7710   20.5130   15.3510 C   0  0  1  0  0  0  0  0  0  0  0  0
   55.0520   19.7920   14.9310 C   0  0  1  0  0  0  0  0  0  0  0  0
   54.8670   18.2810   14.7690 C   0  0  0  0  0  0  0  0  0  0  0  0
   55.7090   21.7100   13.6160 C   0  0  2  0  0  0  0  0  0  0  0  0
   56.1310   22.1410   12.3150 O   0  0  0  0  0  0  0  0  0  0  0  0
   54.6720   23.8710   13.8860 O   0  0  0  0  0  0  0  0  0  0  0  0
   52.8930   22.7130   15.8430 O   0  0  0  0  0  0  0  0  0  0  0  0
   53.2720   20.0460   16.5980 O   0  0  0  0  0  0  0  0  0  0  0  0
   55.4360   20.2840   13.6400 O   0  0  0  0  0  0  0  0  0  0  0  0
   54.0510   18.0420   13.6210 O   0  0  0  0  0  0  0  0  0  0  0  0
  1  2  1  0
  2  3  1  0
  3  4  1  0
  4  5  1  6
  1  6  1  0
  6  7  1  6
  1  8  1  1
  2  9  1  6
  3 10  1  1
  4 11  1  0
  6 11  1  0
  5 12  1  0
M  END
$$$$
