
     RDKit          3D

 26 30  0  0  0  0  0  0  0  0999 V2000
   16.7672   -9.0131   10.4304 C   0  0  0  0  0  0  0  0  0  0  0  0
   15.9805   -5.6149    6.6563 C   0  0  0  0  0  0  0  0  0  0  0  0
   16.8911   -3.3789    6.2776 C   0  0  0  0  0  0  0  0  0  0  0  0
   18.9188   -3.5419    7.7088 C   0  0  0  0  0  0  0  0  0  0  0  0
   21.2437   -2.4280    8.8128 C   0  0  0  0  0  0  0  0  0  0  0  0
   22.7742   -0.6944    8.8058 C   0  0  0  0  0  0  0  0  0  0  0  0
   19.6285   -2.5558    7.0126 C   0  0  0  0  0  0  0  0  0  0  0  0
   14.2350   -7.1332    6.0806 O   0  0  0  0  0  0  0  0  0  0  0  0
   15.2451   -6.8481    6.7212 C   0  0  0  0  0  0  0  0  0  0  0  0
   15.8051   -7.8383    7.6759 C   0  0  0  0  0  0  0  0  0  0  0  0
   16.9451   -7.5764    8.3491 C   0  0  0  0  0  0  0  0  0  0  0  0
   17.5170   -8.4521    9.2801 N   0  0  0  0  0  0  0  0  0  0  0  0
   18.9754   -8.6949    9.3489 C   0  0  0  0  0  0  0  0  0  0  0  0
   19.4615   -8.5318   10.7977 C   0  0  0  0  0  0  0  0  0  0  0  0
   18.8286   -9.4115   11.7421 O   0  0  0  0  0  0  0  0  0  0  0  0
   17.6184   -9.9955   11.2488 C   0  0  0  0  0  0  0  0  0  0  0  0
   17.6466   -6.3739    8.1546 O   0  0  0  0  0  0  0  0  0  0  0  0
   17.1350   -5.4042    7.3575 C   0  0  0  0  0  0  0  0  0  0  0  0
   15.5290   -4.2710    5.7326 S   0  0  0  0  0  0  0  0  0  0  0  0
   17.6999   -4.1078    7.1352 C   0  0  0  0  0  0  0  0  0  0  0  0
   19.3943   -3.9664    8.9617 C   0  0  0  0  0  0  0  0  0  0  0  0
   20.5557   -3.4161    9.5071 C   0  0  0  0  0  0  0  0  0  0  0  0
   22.3620   -1.9199    9.4184 O   0  0  0  0  0  0  0  0  0  0  0  0
   22.7591   -0.8217    7.2902 C   0  0  0  0  0  0  0  0  0  0  0  0
   21.4265   -1.0539    6.8097 O   0  0  0  0  0  0  0  0  0  0  0  0
   20.7888   -2.0080    7.5588 C   0  0  0  0  0  0  0  0  0  0  0  0
  4  7  4  0
  2  9  4  0
  8  9  2  0
  9 10  4  0
 10 11  4  0
 11 12  1  0
  1 12  1  0
 12 13  1  0
 13 14  1  0
 14 15  1  0
  1 16  1  0
 15 16  1  0
 11 17  4  0
  2 18  4  0
 17 18  4  0
  3 19  4  0
  2 19  4  0
  3 20  4  0
  4 20  1  0
 18 20  4  0
  4 21  4  0
  5 22  4  0
 21 22  4  0
  5 23  1  0
  6 23  1  0
  6 24  1  0
 24 25  1  0
 25 26  1  0
  7 26  4  0
  5 26  4  0
M  END
