6ZPB_3D1_A_201
     RDKit          3D

 31 33  0  0  0  0  0  0  0  0999 V2000
   -4.7398   20.3265   -5.0238 O   0  0  0  0  0  0  0  0  0  0  0  0
   -4.8103   20.0168   -6.4047 C   0  0  0  0  0  0  0  0  0  0  0  0
   -4.6541   18.5366   -6.6158 C   0  0  2  0  0  0  0  0  0  0  0  0
   -4.4969   18.2897   -8.0288 O   0  0  0  0  0  0  0  0  0  0  0  0
   -5.5797   17.5150   -8.5137 C   0  0  2  0  0  0  0  0  0  0  0  0
   -5.9228   18.0161   -9.8383 N   0  0  0  0  0  4  0  0  0  0  0  0
   -7.0599   17.7322  -10.5580 C   0  0  0  0  0  0  0  0  0  0  0  0
   -8.1348   17.0488  -10.1493 N   0  0  0  0  0  0  0  0  0  0  0  0
   -9.0344   16.9342  -11.1317 C   0  0  0  0  0  0  0  0  0  0  0  0
   -8.9758   17.4102  -12.3843 N   0  0  0  0  0  0  0  0  0  0  0  0
   -7.8797   18.1078  -12.7646 C   0  0  0  0  0  0  0  0  0  0  0  0
   -7.8317   18.5944  -14.0143 N   0  0  0  0  0  0  0  0  0  0  0  0
   -6.8579   18.2879  -11.8139 C   0  0  0  0  0  0  0  0  0  0  0  0
   -5.6329   18.9363  -11.8720 N   0  0  0  0  0  0  0  0  0  0  0  0
   -5.1242   18.7463  -10.6781 C   0  0  0  0  0  0  0  0  0  0  0  0
   -6.6747   17.6154   -7.4587 C   0  0  0  0  0  0  0  0  0  0  0  0
   -5.8592   17.6992   -6.1775 C   0  0  1  0  0  0  0  0  0  0  0  0
   -5.4201   16.3932   -5.8002 O   0  0  0  0  0  0  0  0  0  0  0  0
   -4.8419   21.2833   -4.9014 H   0  0  0  0  0  0  0  0  0  0  0  0
   -5.7587   20.3300   -6.7887 H   0  0  0  0  0  0  0  0  0  0  0  0
   -4.0211   20.5268   -6.9166 H   0  0  0  0  0  0  0  0  0  0  0  0
   -3.8123   18.2495   -6.0209 H   0  0  0  0  0  0  0  0  0  0  0  0
   -5.3732   16.4741   -8.6504 H   0  0  0  0  0  0  0  0  0  0  0  0
   -9.8899   16.4083  -10.8941 H   0  0  0  0  0  0  0  0  0  0  0  0
   -8.5798   18.4343  -14.6339 H   0  0  0  0  0  0  0  0  0  0  0  0
   -7.0485   19.1114  -14.3115 H   0  0  0  0  0  0  0  0  0  0  0  0
   -4.2026   19.1149  -10.3960 H   0  0  0  0  0  0  0  0  0  0  0  0
   -7.2727   18.4916   -7.5988 H   0  0  0  0  0  0  0  0  0  0  0  0
   -7.3727   16.8046   -7.4778 H   0  0  0  0  0  0  0  0  0  0  0  0
   -6.3961   18.1056   -5.3459 H   0  0  0  0  0  0  0  0  0  0  0  0
   -4.9275   15.9932   -6.5338 H   0  0  0  0  0  0  0  0  0  0  0  0
  1  2  1  0
  3  2  1  0
  3  4  1  0
  4  5  1  0
  5  6  1  0
  6  7  4  0
  7  8  4  0
  8  9  4  0
  9 10  4  0
 10 11  4  0
 11 12  1  0
  7 13  4  0
 11 13  4  0
 13 14  4  0
  6 15  4  0
 14 15  4  0
  5 16  1  0
  3 17  1  0
 16 17  1  0
 17 18  1  0
  1 19  1  0
  2 20  1  0
  2 21  1  0
  3 22  1  6
  5 23  1  1
  9 24  1  0
 12 25  1  0
 12 26  1  0
 15 27  1  0
 16 28  1  0
 16 29  1  0
 17 30  1  6
 18 31  1  0
M  CHG  1   6   1
M  END
