7BHX_TO5_A_402
     RDKit          3D

 34 36  0  0  0  0  0  0  0  0999 V2000
   33.6784   50.2957   34.7954 C   0  0  1  0  0  0  0  0  0  0  0  0
   32.9701   49.3189   32.6106 C   0  0  0  0  0  0  0  0  0  0  0  0
   31.3710   48.1395   31.3166 C   0  0  0  0  0  0  0  0  0  0  0  0
   30.9537   43.7561   28.8983 C   0  0  0  0  0  0  0  0  0  0  0  0
   31.7426   44.6952   30.9322 C   0  0  0  0  0  0  0  0  0  0  0  0
   33.5177   47.1644   31.6398 C   0  0  0  0  0  0  0  0  0  0  0  0
   34.4628   46.1343   31.4212 C   0  0  0  0  0  0  0  0  0  0  0  0
   35.7540   46.2259   31.9471 C   0  0  0  0  0  0  0  0  0  0  0  0
   36.1303   47.3446   32.6892 C   0  0  0  0  0  0  0  0  0  0  0  0
   35.2189   48.3756   32.9143 C   0  0  0  0  0  0  0  0  0  0  0  0
   33.9088   48.2925   32.4055 C   0  0  0  0  0  0  0  0  0  0  0  0
   36.9094   44.9366   31.6627 Cl  0  0  0  0  0  0  0  0  0  0  0  0
   33.2839   50.4780   33.3986 N   0  0  0  0  0  0  0  0  0  0  0  0
   32.7262   51.7686   32.9998 C   0  0  2  0  0  0  0  0  0  0  0  0
   32.2454   47.1043   31.1142 N   0  0  0  0  0  0  0  0  0  0  0  0
   30.2074   48.1037   30.8307 O   0  0  0  0  0  0  0  0  0  0  0  0
   31.7397   49.2165   32.0515 N   0  0  0  0  0  0  0  0  0  0  0  0
   31.8037   45.9673   30.3471 C   0  0  0  0  0  0  0  0  0  0  0  0
   31.3238   43.6277   30.2008 N   0  0  0  0  0  0  0  0  0  0  0  0
   30.9967   45.0070   28.2778 C   0  0  0  0  0  0  0  0  0  0  0  0
   31.4231   46.1179   29.0079 C   0  0  0  0  0  0  0  0  0  0  0  0
   32.7811   50.3510   35.4473 H   0  0  0  0  0  0  0  0  0  0  0  0
   34.1665   49.3092   34.9452 H   0  0  0  0  0  0  0  0  0  0  0  0
   34.3967   51.0885   35.0933 H   0  0  0  0  0  0  0  0  0  0  0  0
   30.6254   42.8868   28.3444 H   0  0  0  0  0  0  0  0  0  0  0  0
   32.0299   44.5565   31.9663 H   0  0  0  0  0  0  0  0  0  0  0  0
   34.2137   45.2589   30.8368 H   0  0  0  0  0  0  0  0  0  0  0  0
   37.1339   47.4198   33.0882 H   0  0  0  0  0  0  0  0  0  0  0  0
   35.5487   49.2383   33.4784 H   0  0  0  0  0  0  0  0  0  0  0  0
   31.6169   51.7232   33.0267 H   0  0  0  0  0  0  0  0  0  0  0  0
   33.0567   52.0301   31.9716 H   0  0  0  0  0  0  0  0  0  0  0  0
   33.0767   52.5662   33.6886 H   0  0  0  0  0  0  0  0  0  0  0  0
   30.7026   45.1138   27.2417 H   0  0  0  0  0  0  0  0  0  0  0  0
   31.4614   47.0916   28.5361 H   0  0  0  0  0  0  0  0  0  0  0  0
  6  7  2  0
  7  8  1  0
  8  9  2  0
  9 10  1  0
  2 11  1  0
 10 11  2  0
  6 11  1  0
  8 12  1  0
  1 13  1  0
  2 13  1  0
 13 14  1  0
  3 15  1  0
  6 15  1  0
  3 16  2  0
  2 17  2  0
  3 17  1  0
 15 18  1  0
  5 18  2  0
  5 19  1  0
  4 19  2  0
  4 20  1  0
 18 21  1  0
 20 21  2  0
  1 22  1  1
  1 23  1  0
  1 24  1  0
  4 25  1  0
  5 26  1  0
  7 27  1  0
  9 28  1  0
 10 29  1  0
 14 30  1  6
 14 31  1  0
 14 32  1  0
 20 33  1  0
 21 34  1  0
M  END
