7KLX_WOV_A_401
     RDKit          3D

 17 18  0  0  0  0  0  0  0  0999 V2000
   54.0515   15.3940   -1.8501 C   0  0  0  0  0  0  0  0  0  0  0  0
   55.2233   14.6668   -1.6688 C   0  0  0  0  0  0  0  0  0  0  0  0
   55.9277   15.3747   -0.6977 C   0  0  0  0  0  0  0  0  0  0  0  0
   55.2010   16.4877   -0.3116 C   0  0  0  0  0  0  0  0  0  0  0  0
   55.6283   17.4872    0.7068 C   0  0  0  0  0  0  0  0  0  0  0  0
   50.1588   15.4812    0.3570 O   0  0  0  0  0  0  0  0  0  0  0  0
   53.0136   17.4491   -0.9481 C   0  0  0  0  0  0  0  0  0  0  0  0
   51.7766   17.1726   -0.4269 C   0  0  0  0  0  0  0  0  0  0  0  0
   50.8164   18.1602   -0.3715 C   0  0  0  0  0  0  0  0  0  0  0  0
   52.4399   15.0159    0.2162 O   0  0  0  0  0  0  0  0  0  0  0  0
   51.1325   19.4226   -0.8510 C   0  0  0  0  0  0  0  0  0  0  0  0
   52.3828   19.7136   -1.3812 C   0  0  0  0  0  0  0  0  0  0  0  0
   53.3510   18.7159   -1.4365 C   0  0  0  0  0  0  0  0  0  0  0  0
   51.4921   15.8309    0.0643 C   0  0  0  0  0  0  0  0  0  0  0  0
   50.2060   20.4530   -0.8201 O   0  0  0  0  0  0  0  0  0  0  0  0
   54.0600   16.4680   -1.0361 N   0  0  0  0  0  0  0  0  0  0  0  0
   52.9323   15.0649   -2.7940 C   0  0  0  0  0  0  0  0  0  0  0  0
  1  2  2  0
  2  3  1  0
  3  4  2  0
  4  5  1  0
  7  8  2  0
  8  9  1  0
  9 11  2  0
 11 12  1  0
  7 13  1  0
 12 13  2  0
 10 14  2  0
  6 14  1  0
  8 14  1  0
 11 15  1  0
  4 16  1  0
  7 16  1  0
  1 16  1  0
  1 17  1  0
M  END
$$$$
