1R9O_FLP_A_501
     RDKit          3D

 31 32  0  0  0  0  0  0  0  0999 V2000
   10.7803   35.4197    0.9170 C   0  0  0  0  0  0  0  0  0  0  0  0
   10.3098   34.4423   -0.0504 C   0  0  0  0  0  0  0  0  0  0  0  0
    9.0208   34.6076   -0.7430 C   0  0  0  0  0  0  0  0  0  0  0  0
    8.2126   35.7992   -0.3642 C   0  0  0  0  0  0  0  0  0  0  0  0
    8.6816   36.7519    0.5899 C   0  0  0  0  0  0  0  0  0  0  0  0
    9.9470   36.5458    1.2443 C   0  0  0  0  0  0  0  0  0  0  0  0
    8.5572   33.6795   -1.7372 C   0  0  0  0  0  0  0  0  0  0  0  0
    7.3586   32.8288   -1.4598 C   0  0  0  0  0  0  0  0  0  0  0  0
    6.8800   31.8797   -2.4231 C   0  0  0  0  0  0  0  0  0  0  0  0
    7.4623   31.8089   -3.7554 C   0  0  0  0  0  0  0  0  0  0  0  0
    8.6136   32.6156   -4.0490 C   0  0  0  0  0  0  0  0  0  0  0  0
    9.1093   33.5929   -3.1184 C   0  0  0  0  0  0  0  0  0  0  0  0
    6.9657   30.7920   -4.8505 C   0  0  2  0  0  0  0  0  0  0  0  0
    5.4645   31.0200   -5.2549 C   0  0  0  0  0  0  0  0  0  0  0  0
    7.1989   29.3008   -4.3496 C   0  0  0  0  0  0  0  0  0  0  0  0
    6.2425   28.5931   -4.0191 O   0  0  0  0  0  0  0  0  0  0  0  0
    8.3684   28.8617   -4.2867 O   0  0  0  0  0  0  0  0  0  0  0  0
   10.2127   34.3219   -3.5459 F   0  0  0  0  0  0  0  0  0  0  0  0
   11.7033   35.3072    1.3646 H   0  0  0  0  0  0  0  0  0  0  0  0
   10.8912   33.6150   -0.2563 H   0  0  0  0  0  0  0  0  0  0  0  0
    7.2892   35.9400   -0.8028 H   0  0  0  0  0  0  0  0  0  0  0  0
    8.1151   37.5860    0.8099 H   0  0  0  0  0  0  0  0  0  0  0  0
   10.2621   37.2179    1.9613 H   0  0  0  0  0  0  0  0  0  0  0  0
    6.8665   32.9265   -0.5580 H   0  0  0  0  0  0  0  0  0  0  0  0
    6.1126   31.2385   -2.1682 H   0  0  0  0  0  0  0  0  0  0  0  0
    9.0978   32.4905   -4.9518 H   0  0  0  0  0  0  0  0  0  0  0  0
    7.5445   30.9644   -5.7335 H   0  0  0  0  0  0  0  0  0  0  0  0
    4.8374   30.8596   -4.4031 H   0  0  0  0  0  0  0  0  0  0  0  0
    5.1958   30.3331   -6.0301 H   0  0  0  0  0  0  0  0  0  0  0  0
    5.3379   32.0225   -5.6070 H   0  0  0  0  0  0  0  0  0  0  0  0
    9.0877   29.4065   -4.5397 H   0  0  0  0  0  0  0  0  0  0  0  0
  1  2  2  0
  2  3  1  0
  3  4  2  0
  4  5  1  0
  1  6  1  0
  5  6  2  0
  3  7  1  0
  7  8  2  0
  8  9  1  0
  9 10  2  0
 10 11  1  0
  7 12  1  0
 11 12  2  0
 10 13  1  0
 13 14  1  0
 13 15  1  0
 15 16  2  0
 15 17  1  0
 12 18  1  0
  1 19  1  0
  2 20  1  0
  4 21  1  0
  5 22  1  0
  6 23  1  0
  8 24  1  0
  9 25  1  0
 11 26  1  0
 13 27  1  6
 14 28  1  0
 14 29  1  0
 14 30  1  0
 17 31  1  0
M  END
