7LJN_GTP_C_501
     RDKit          3D

 32 34  0  0  0  0  0  0  0  0999 V2000
  -58.5140    6.9170  -22.4260 P   0  0  0  0  0  0  0  0  0  0  0  0
  -57.9090    6.4900  -23.7440 O   0  0  0  0  0  0  0  0  0  0  0  0
  -58.1320    8.3250  -22.0550 O   0  0  0  0  0  0  0  0  0  0  0  0
  -58.2700    5.9150  -21.3110 O   0  0  0  0  0  0  0  0  0  0  0  0
  -60.0980    6.9560  -22.7170 O   0  0  0  0  0  0  0  0  0  0  0  0
  -61.2780    7.7550  -21.9580 P   0  0  1  0  0  0  0  0  0  0  0  0
  -62.3680    6.8050  -21.5940 O   0  0  0  0  0  0  0  0  0  0  0  0
  -60.7020    8.5320  -20.7930 O   0  0  0  0  0  0  0  0  0  0  0  0
  -61.8920    8.7600  -23.0590 O   0  0  0  0  0  0  0  0  0  0  0  0
  -61.1340   10.0280  -23.6870 P   0  0  1  0  0  0  0  0  0  0  0  0
  -59.8930   10.3430  -22.8990 O   0  0  0  0  0  0  0  0  0  0  0  0
  -60.8790    9.7860  -25.1510 O   0  0  0  0  0  0  0  0  0  0  0  0
  -62.2620   11.1500  -23.5490 O   0  0  0  0  0  0  0  0  0  0  0  0
  -62.8590   11.4970  -22.3150 C   0  0  0  0  0  0  0  0  0  0  0  0
  -64.3370   11.8150  -22.5560 C   0  0  1  0  0  0  0  0  0  0  0  0
  -64.4730   12.8250  -23.5390 O   0  0  0  0  0  0  0  0  0  0  0  0
  -65.0890   10.6120  -23.0630 C   0  0  1  0  0  0  0  0  0  0  0  0
  -65.5190    9.8010  -21.9920 O   0  0  0  0  0  0  0  0  0  0  0  0
  -66.2140   11.2700  -23.8320 C   0  0  1  0  0  0  0  0  0  0  0  0
  -67.2330   11.6920  -22.9480 O   0  0  0  0  0  0  0  0  0  0  0  0
  -65.5590   12.5260  -24.3840 C   0  0  2  0  0  0  0  0  0  0  0  0
  -65.0550   12.2910  -25.7360 N   0  0  0  0  0  0  0  0  0  0  0  0
  -63.7570   12.2130  -26.1530 C   0  0  0  0  0  0  0  0  0  0  0  0
  -63.7540   12.0060  -27.4870 N   0  0  0  0  0  0  0  0  0  0  0  0
  -65.0320   11.9700  -27.9260 C   0  0  0  0  0  0  0  0  0  0  0  0
  -65.6110   11.8060  -29.1840 C   0  0  0  0  0  0  0  0  0  0  0  0
  -64.9290   11.6380  -30.2050 O   0  0  0  0  0  0  0  0  0  0  0  0
  -66.9780   11.8420  -29.2870 N   0  0  0  0  0  0  0  0  0  0  0  0
  -67.7720   12.0210  -28.1750 C   0  0  0  0  0  0  0  0  0  0  0  0
  -69.0940   12.0310  -28.3010 N   0  0  0  0  0  0  0  0  0  0  0  0
  -67.2120   12.1700  -26.9350 N   0  0  0  0  0  0  0  0  0  0  0  0
  -65.8560   12.1620  -26.8300 C   0  0  0  0  0  0  0  0  0  0  0  0
  1  2  2  0
  1  3  1  0
  1  4  1  0
  1  5  1  0
  5  6  1  0
  6  7  2  0
  6  8  1  1
  6  9  1  0
  9 10  1  0
 10 11  2  0
 10 12  1  6
 10 13  1  0
 13 14  1  0
 15 14  1  6
 15 16  1  0
 15 17  1  0
 17 18  1  1
 17 19  1  0
 19 20  1  1
 16 21  1  0
 19 21  1  0
 21 22  1  6
 22 23  1  0
 23 24  2  0
 24 25  1  0
 25 26  1  0
 26 27  2  0
 26 28  1  0
 28 29  1  0
 29 30  1  0
 29 31  2  0
 22 32  1  0
 25 32  2  0
 31 32  1  0
M  END
$$$$
