7ORW_7WA_A_203
     RDKit          3D

 10 11  0  0  0  0  0  0  0  0999 V2000
   -4.3460   96.8842    6.7487 C   0  0  0  0  0  0  0  0  0  0  0  0
   -4.0927   98.8441    8.1529 N   0  0  0  0  0  0  0  0  0  0  0  0
   -3.6294   98.0127    7.0937 C   0  0  0  0  0  0  0  0  0  0  0  0
   -2.4749   98.3016    6.3934 C   0  0  0  0  0  0  0  0  0  0  0  0
   -2.0005   97.5154    5.3623 C   0  0  0  0  0  0  0  0  0  0  0  0
   -2.7468   96.3803    5.0360 C   0  0  0  0  0  0  0  0  0  0  0  0
   -3.8966   96.0652    5.7110 C   0  0  0  0  0  0  0  0  0  0  0  0
   -4.7991   95.0571    5.6159 N   0  0  0  0  0  0  0  0  0  0  0  0
   -5.7673   95.2207    6.5366 C   0  0  0  0  0  0  0  0  0  0  0  0
   -5.5005   96.3525    7.2496 N   0  0  0  0  0  0  0  0  0  0  0  0
  2  3  1  0
  1  3  2  0
  3  4  1  0
  4  5  2  0
  5  6  1  0
  6  7  2  0
  1  7  1  0
  7  8  1  0
  8  9  1  0
  1 10  1  0
  9 10  2  0
M  END
$$$$
