7KB1_WBJ_B_501
     RDKit          3D

 22 22  0  0  0  0  0  0  0  0999 V2000
    0.5590  -32.5320   15.8310 C   0  0  0  0  0  0  0  0  0  0  0  0
    0.2600  -26.7910   15.2240 C   0  0  0  0  0  0  0  0  0  0  0  0
   -4.8990  -29.3230   18.4250 C   0  0  0  0  0  0  0  0  0  0  0  0
   -5.2880  -26.3740   17.8560 C   0  0  0  0  0  0  0  0  0  0  0  0
   -4.0850  -26.8890   17.7130 C   0  0  0  0  0  0  0  0  0  0  0  0
   -3.8530  -28.3960   17.8180 C   0  0  0  0  0  0  0  0  0  0  0  0
   -1.7530  -28.0980   16.8060 C   0  0  0  0  0  0  0  0  0  0  0  0
   -0.6600  -28.9600   16.1700 C   0  0  0  0  0  0  0  0  0  0  0  0
   -0.5840  -30.3500   16.3170 C   0  0  0  0  0  0  0  0  0  0  0  0
    0.4530  -31.0170   15.6880 C   0  0  0  0  0  0  0  0  0  0  0  0
    1.2980  -29.0650   14.8180 C   0  0  0  0  0  0  0  0  0  0  0  0
    0.3000  -28.3110   15.4070 C   0  0  0  0  0  0  0  0  0  0  0  0
   -2.8000  -28.9030   17.3970 N   0  0  0  0  0  0  0  0  0  0  0  0
    1.3520  -30.3750   14.9690 N   0  0  0  0  0  0  0  0  0  0  0  0
   -1.4960  -31.1040   17.0610 O   0  0  0  0  0  0  0  0  0  0  0  0
    1.0560  -26.2190   16.2260 O   0  0  0  0  0  0  0  0  0  0  0  0
   -0.7010  -24.7020   17.3490 O   0  0  0  0  0  0  0  0  0  0  0  0
    1.6750  -24.3400   17.8790 O   0  0  0  0  0  0  0  0  0  0  0  0
    0.8160  -23.7320   15.6440 O   0  0  0  0  0  0  0  0  0  0  0  0
   -5.5840  -28.9480   19.4130 O   0  0  0  0  0  0  0  0  0  0  0  0
   -5.0600  -30.4720   17.9350 O   0  0  0  0  0  0  0  0  0  0  0  0
    0.7000  -24.7140   16.7910 P   0  0  0  0  0  0  0  0  0  0  0  0
  4  5  2  0
  5  6  1  0
  3  6  1  0
  7  8  1  0
  8  9  2  0
  1 10  1  0
  9 10  1  0
 11 12  2  0
  2 12  1  0
  8 12  1  0
  7 13  1  0
  6 13  2  0
 11 14  1  0
 10 14  2  0
  9 15  1  0
  2 16  1  0
  3 20  1  0
  3 21  2  0
 19 22  2  0
 16 22  1  0
 17 22  1  0
 18 22  1  0
M  END
$$$$
