7KB1_WBJ_B_501
     RDKit          3D

 22 22  0  0  0  0  0  0  0  0999 V2000
    0.5590  -32.5320   15.8310 C   0  0  0  0  0  0  0  0  0  0  0  0
    0.2600  -26.7910   15.2240 C   0  0  0  0  0  0  0  0  0  0  0  0
   -4.8990  -29.3230   18.4250 C   0  0  0  0  0  0  0  0  0  0  0  0
   -5.2880  -26.3740   17.8560 C   0  0  0  0  0  0  0  0  0  0  0  0
   -4.0850  -26.8890   17.7130 C   0  0  0  0  0  0  0  0  0  0  0  0
   -3.8530  -28.3960   17.8180 C   0  0  0  0  0  0  0  0  0  0  0  0
   -1.7530  -28.0980   16.8060 C   0  0  0  0  0  0  0  0  0  0  0  0
   -0.6600  -28.9600   16.1700 C   0  0  0  0  0  0  0  0  0  0  0  0
   -0.5840  -30.3500   16.3170 C   0  0  0  0  0  0  0  0  0  0  0  0
    0.4530  -31.0170   15.6880 C   0  0  0  0  0  0  0  0  0  0  0  0
    1.2980  -29.0650   14.8180 C   0  0  0  0  0  0  0  0  0  0  0  0
    0.3000  -28.3110   15.4070 C   0  0  0  0  0  0  0  0  0  0  0  0
   -2.8000  -28.9030   17.3970 N   0  0  0  0  0  0  0  0  0  0  0  0
    1.3520  -30.3750   14.9690 N   0  0  0  0  0  0  0  0  0  0  0  0
   -1.4960  -31.1040   17.0610 O   0  0  0  0  0  0  0  0  0  0  0  0
    1.0560  -26.2190   16.2260 O   0  0  0  0  0  0  0  0  0  0  0  0
   -0.7010  -24.7020   17.3490 O   0  0  0  0  0  0  0  0  0  0  0  0
    1.6750  -24.3400   17.8790 O   0  0  0  0  0  0  0  0  0  0  0  0
    0.8160  -23.7320   15.6440 O   0  0  0  0  0  0  0  0  0  0  0  0
   -5.5840  -28.9480   19.4130 O   0  0  0  0  0  0  0  0  0  0  0  0
   -5.0600  -30.4720   17.9350 O   0  0  0  0  0  0  0  0  0  0  0  0
    0.7000  -24.7140   16.7910 P   0  0  0  0  0  0  0  0  0  0  0  0
  4  5  2  0
  5  6  1  0
  3  6  1  0
  7  8  1  0
  8  9  2  0
  1 10  1  0
  9 10  1  0
 11 12  2  0
  2 12  1  0
  8 12  1  0
  7 13  1  0
  6 13  2  0
 11 14  1  0
 10 14  2  0
  9 15  1  0
  2 16  1  0
  3 20  1  0
  3 21  2  0
 19 22  2  0
 16 22  1  0
 17 22  1  0
 18 22  1  0
M  END
$$$$
7KB1_WBJ_A_501
     RDKit          3D

 22 22  0  0  0  0  0  0  0  0999 V2000
   11.6130   -0.0480    7.3190 C   0  0  0  0  0  0  0  0  0  0  0  0
   11.9240   -5.3930    9.5130 C   0  0  0  0  0  0  0  0  0  0  0  0
   17.0960   -1.5990   11.1580 C   0  0  0  0  0  0  0  0  0  0  0  0
   17.0800   -4.1650   12.7790 C   0  0  0  0  0  0  0  0  0  0  0  0
   16.3490   -4.0800   11.6880 C   0  0  0  0  0  0  0  0  0  0  0  0
   16.0550   -2.7090   11.0790 C   0  0  0  0  0  0  0  0  0  0  0  0
   13.9180   -3.4540   10.3640 C   0  0  0  0  0  0  0  0  0  0  0  0
   12.8380   -3.0190    9.3580 C   0  0  0  0  0  0  0  0  0  0  0  0
   12.7500   -1.7300    8.8160 C   0  0  0  0  0  0  0  0  0  0  0  0
   11.7250   -1.4530    7.9210 C   0  0  0  0  0  0  0  0  0  0  0  0
   10.9090   -3.5970    8.0680 C   0  0  0  0  0  0  0  0  0  0  0  0
   11.8970   -3.9650    8.9640 C   0  0  0  0  0  0  0  0  0  0  0  0
   14.9730   -2.4700   10.5050 N   0  0  0  0  0  0  0  0  0  0  0  0
   10.8480   -2.3730    7.5750 N   0  0  0  0  0  0  0  0  0  0  0  0
   13.6330   -0.6930    9.1270 O   0  0  0  0  0  0  0  0  0  0  0  0
   11.0990   -5.3820   10.6460 O   0  0  0  0  0  0  0  0  0  0  0  0
   10.5010   -6.1220   13.0390 O   0  0  0  0  0  0  0  0  0  0  0  0
   12.8880   -6.1620   12.3020 O   0  0  0  0  0  0  0  0  0  0  0  0
   11.2600   -7.8050   11.4540 O   0  0  0  0  0  0  0  0  0  0  0  0
   17.5260   -1.2040   12.2750 O   0  0  0  0  0  0  0  0  0  0  0  0
   17.5170   -1.0730   10.0930 O   0  0  0  0  0  0  0  0  0  0  0  0
   11.4540   -6.3870   11.9000 P   0  0  0  0  0  0  0  0  0  0  0  0
  4  5  2  0
  5  6  1  0
  3  6  1  0
  7  8  1  0
  8  9  2  0
  1 10  1  0
  9 10  1  0
 11 12  2  0
  2 12  1  0
  8 12  1  0
  7 13  1  0
  6 13  2  0
 11 14  1  0
 10 14  2  0
  9 15  1  0
  2 16  1  0
  3 20  1  0
  3 21  2  0
 19 22  2  0
 16 22  1  0
 17 22  1  0
 18 22  1  0
M  END
$$$$
7KB1_WBJ_C_501
     RDKit          3D

 22 22  0  0  0  0  0  0  0  0999 V2000
    0.4950   10.3090   47.6050 C   0  0  0  0  0  0  0  0  0  0  0  0
    0.0140    4.5910   48.1200 C   0  0  0  0  0  0  0  0  0  0  0  0
   -5.0170    7.3970   44.8340 C   0  0  0  0  0  0  0  0  0  0  0  0
   -5.5510    4.5100   45.0370 C   0  0  0  0  0  0  0  0  0  0  0  0
   -4.3540    4.9110   45.4100 C   0  0  0  0  0  0  0  0  0  0  0  0
   -4.0300    6.4030   45.4340 C   0  0  0  0  0  0  0  0  0  0  0  0
   -1.9730    5.9880   46.5440 C   0  0  0  0  0  0  0  0  0  0  0  0
   -0.8500    6.7960   47.2050 C   0  0  0  0  0  0  0  0  0  0  0  0
   -0.7210    8.1800   47.0860 C   0  0  0  0  0  0  0  0  0  0  0  0
    0.3420    8.7970   47.7230 C   0  0  0  0  0  0  0  0  0  0  0  0
    1.1220    6.8130   48.5590 C   0  0  0  0  0  0  0  0  0  0  0  0
    0.0920    6.1080   47.9580 C   0  0  0  0  0  0  0  0  0  0  0  0
   -2.9790    6.8400   45.9440 N   0  0  0  0  0  0  0  0  0  0  0  0
    1.2240    8.1220   48.4320 N   0  0  0  0  0  0  0  0  0  0  0  0
   -1.6030    8.9800   46.3520 O   0  0  0  0  0  0  0  0  0  0  0  0
    0.8030    4.0310   47.1080 O   0  0  0  0  0  0  0  0  0  0  0  0
   -0.8840    2.3790   46.1340 O   0  0  0  0  0  0  0  0  0  0  0  0
    0.6510    1.5530   47.8670 O   0  0  0  0  0  0  0  0  0  0  0  0
    1.5170    2.0630   45.6080 O   0  0  0  0  0  0  0  0  0  0  0  0
   -5.5760    8.2440   45.5790 O   0  0  0  0  0  0  0  0  0  0  0  0
   -5.2690    7.3680   43.6010 O   0  0  0  0  0  0  0  0  0  0  0  0
    0.5240    2.4710   46.6760 P   0  0  0  0  0  0  0  0  0  0  0  0
  4  5  2  0
  5  6  1  0
  3  6  1  0
  7  8  1  0
  8  9  2  0
  1 10  1  0
  9 10  1  0
 11 12  2  0
  2 12  1  0
  8 12  1  0
  7 13  1  0
  6 13  2  0
 11 14  1  0
 10 14  2  0
  9 15  1  0
  2 16  1  0
  3 20  1  0
  3 21  2  0
 19 22  2  0
 16 22  1  0
 17 22  1  0
 18 22  1  0
M  END
$$$$
