7BLG_GAL_A_201
     RDKit          3D

 12 12  0  0  0  0  0  0  0  0999 V2000
  -18.8294    2.2191  -11.5444 C   0  0  2  0  0  0  0  0  0  0  0  0
  -18.9816    3.6964  -11.2036 C   0  0  1  0  0  0  0  0  0  0  0  0
  -17.6430    4.3517  -10.9307 C   0  0  2  0  0  0  0  0  0  0  0  0
  -16.8245    3.4953   -9.9267 C   0  0  2  0  0  0  0  0  0  0  0  0
  -16.7792    2.0538  -10.3919 C   0  0  1  0  0  0  0  0  0  0  0  0
  -16.0793    1.1185   -9.4301 C   0  0  0  0  0  0  0  0  0  0  0  0
  -20.0779    1.6220  -11.6269 O   0  0  0  0  0  0  0  0  0  0  0  0
  -19.5715    4.3850  -12.3032 O   0  0  0  0  0  0  0  0  0  0  0  0
  -17.8350    5.6474  -10.3689 O   0  0  0  0  0  0  0  0  0  0  0  0
  -17.4405    3.5258   -8.6550 O   0  0  0  0  0  0  0  0  0  0  0  0
  -18.1101    1.5466  -10.5358 O   0  0  0  0  0  0  0  0  0  0  0  0
  -16.1830   -0.2351   -9.8604 O   0  0  0  0  0  0  0  0  0  0  0  0
  1  2  1  0
  2  3  1  0
  3  4  1  0
  4  5  1  0
  5  6  1  1
  1  7  1  1
  2  8  1  6
  3  9  1  1
  4 10  1  1
  1 11  1  0
  5 11  1  0
  6 12  1  0
M  END
