1N2J_PAF_A_1001
     RDKit          3D

 21 20  0  0  0  0  0  0  0  0999 V2000
   -2.8550    0.0020   -0.9552 O   0  0  0  0  0  1  0  0  0  0  0  0
   -2.0512   -0.7146   -0.0763 C   0  0  0  0  0  0  0  0  0  0  0  0
   -2.3070   -1.9282    0.1429 O   0  0  0  0  0  0  0  0  0  0  0  0
   -0.8658   -0.0583    0.5955 C   0  0  2  0  0  0  0  0  0  0  0  0
   -1.2151    1.2226    1.0635 O   0  0  0  0  0  0  0  0  0  0  0  0
    0.4324   -0.0391   -0.2896 C   0  0  0  0  0  0  0  0  0  0  0  0
    0.8317   -1.4906   -0.6483 C   0  0  0  0  0  0  0  0  0  0  0  0
    0.2310    0.7456   -1.6084 C   0  0  0  0  0  0  0  0  0  0  0  0
    1.6094    0.5869    0.5064 C   0  0  0  0  0  0  0  0  0  0  0  0
    1.3776    1.9434    0.7766 O   0  0  0  0  0  0  0  0  0  0  0  0
   -0.6377   -0.6642    1.5008 H   0  0  0  0  0  0  0  0  0  0  0  0
   -1.5252    1.7640    0.2931 H   0  0  0  0  0  0  0  0  0  0  0  0
    0.9647   -2.1006    0.2712 H   0  0  0  0  0  0  0  0  0  0  0  0
    1.7869   -1.5095   -1.2167 H   0  0  0  0  0  0  0  0  0  0  0  0
    0.0580   -1.9750   -1.2811 H   0  0  0  0  0  0  0  0  0  0  0  0
   -0.0367    1.8053   -1.4188 H   0  0  0  0  0  0  0  0  0  0  0  0
   -0.5660    0.2861   -2.2294 H   0  0  0  0  0  0  0  0  0  0  0  0
    1.1673    0.7405   -2.2075 H   0  0  0  0  0  0  0  0  0  0  0  0
    1.7495    0.0373    1.4652 H   0  0  0  0  0  0  0  0  0  0  0  0
    2.5532    0.4936   -0.0785 H   0  0  0  0  0  0  0  0  0  0  0  0
    2.1627    2.2608    1.2941 H   0  0  0  0  0  0  0  0  0  0  0  0
  1  2  1  0
  2  3  2  0
  2  4  1  0
  4  5  1  0
  4  6  1  0
  6  7  1  0
  6  8  1  0
  6  9  1  0
  9 10  1  0
  4 11  1  1
  5 12  1  0
  7 13  1  0
  7 14  1  0
  7 15  1  0
  8 16  1  0
  8 17  1  0
  8 18  1  0
  9 19  1  0
  9 20  1  0
 10 21  1  0
M  CHG  1   1  -1
M  END
