7QFM_AY3_A_402
     RDKit          3D

 31 33  0  0  0  0  0  0  0  0999 V2000
   -0.7088    0.0140    1.1691 C   0  0  0  0  0  0  0  0  0  0  0  0
   -0.3828   -0.6356    2.3630 C   0  0  0  0  0  0  0  0  0  0  0  0
    1.2167   -1.1052    4.2370 C   0  0  0  0  0  0  0  0  0  0  0  0
    0.8654   -0.4191    2.9741 C   0  0  0  0  0  0  0  0  0  0  0  0
    1.7750    0.4671    2.3710 C   0  0  0  0  0  0  0  0  0  0  0  0
    1.4472    1.1156    1.1765 C   0  0  0  0  0  0  0  0  0  0  0  0
    0.4014   -1.8983    4.7812 O   0  0  0  0  0  0  0  0  0  0  0  0
    0.2165    0.8719    0.5549 C   0  0  0  0  0  0  0  0  0  0  0  0
    2.4534   -0.8816    4.8369 O   0  0  0  0  0  0  0  0  0  0  0  0
   -0.1354    1.6002   -0.6747 C   0  0  0  0  0  0  0  0  0  0  0  0
   -0.5517    1.0165   -1.8087 C   0  0  0  0  0  0  0  0  0  0  0  0
   -1.2124    2.9701   -3.0830 O   0  0  0  0  0  0  0  0  0  0  0  0
   -1.0999    1.7206   -2.9716 C   0  0  0  0  0  0  0  0  0  0  0  0
   -0.0805   -1.5528   -1.5909 C   0  0  0  0  0  0  0  0  0  0  0  0
   -0.6056   -0.4052   -2.1985 C   0  0  0  0  0  0  0  0  0  0  0  0
   -1.5154    0.8042   -3.9774 N   0  0  0  0  0  0  0  0  0  0  0  0
   -0.2266   -2.7864   -2.2467 C   0  0  0  0  0  0  0  0  0  0  0  0
   -0.8544   -2.8570   -3.5049 C   0  0  0  0  0  0  0  0  0  0  0  0
   -1.3265   -1.6916   -4.1277 C   0  0  0  0  0  0  0  0  0  0  0  0
   -1.1850   -0.4776   -3.4570 C   0  0  0  0  0  0  0  0  0  0  0  0
   -1.6804   -0.1548    0.7208 H   0  0  0  0  0  0  0  0  0  0  0  0
   -1.1096   -1.3029    2.8090 H   0  0  0  0  0  0  0  0  0  0  0  0
    2.7392    0.6633    2.8229 H   0  0  0  0  0  0  0  0  0  0  0  0
    2.1584    1.8006    0.7309 H   0  0  0  0  0  0  0  0  0  0  0  0
    2.7040   -1.3464    5.7014 H   0  0  0  0  0  0  0  0  0  0  0  0
   -0.0846    2.6816   -0.6362 H   0  0  0  0  0  0  0  0  0  0  0  0
    0.4579   -1.5106   -0.6570 H   0  0  0  0  0  0  0  0  0  0  0  0
   -1.9192    1.0278   -4.9140 H   0  0  0  0  0  0  0  0  0  0  0  0
    0.1637   -3.6868   -1.7902 H   0  0  0  0  0  0  0  0  0  0  0  0
   -0.9513   -3.8116   -4.0055 H   0  0  0  0  0  0  0  0  0  0  0  0
   -1.7755   -1.7331   -5.1115 H   0  0  0  0  0  0  0  0  0  0  0  0
  1  2  2  0
  3  4  1  0
  2  4  1  0
  4  5  2  0
  5  6  1  0
  3  7  2  0
  1  8  1  0
  6  8  2  0
  3  9  1  0
  8 10  1  0
 10 11  2  0
 12 13  2  0
 11 13  1  0
 11 15  1  0
 14 15  2  0
 13 16  1  0
 14 17  1  0
 17 18  2  0
 18 19  1  0
 15 20  1  0
 16 20  1  0
 19 20  2  0
  1 21  1  0
  2 22  1  0
  5 23  1  0
  6 24  1  0
  9 25  1  0
 10 26  1  0
 14 27  1  0
 16 28  1  0
 17 29  1  0
 18 30  1  0
 19 31  1  0
M  END
