7QFM_AY3_A_402
     RDKit          3D

 20 22  0  0  0  0  0  0  0  0999 V2000
 -119.4350  203.2990   -3.0840 C   0  0  0  0  0  0  0  0  0  0  0  0
 -119.2720  202.0580   -3.6660 C   0  0  0  0  0  0  0  0  0  0  0  0
 -118.3710  199.7410   -3.6790 C   0  0  0  0  0  0  0  0  0  0  0  0
 -118.4980  201.0830   -3.0540 C   0  0  0  0  0  0  0  0  0  0  0  0
 -117.8750  201.3870   -1.8500 C   0  0  0  0  0  0  0  0  0  0  0  0
 -118.0300  202.6350   -1.2750 C   0  0  0  0  0  0  0  0  0  0  0  0
 -118.9230  199.4950   -4.7530 O   0  0  0  0  0  0  0  0  0  0  0  0
 -118.8220  203.6130   -1.8760 C   0  0  0  0  0  0  0  0  0  0  0  0
 -117.6520  198.8760   -3.0100 O   0  0  0  0  0  0  0  0  0  0  0  0
 -119.0650  204.9330   -1.2910 C   0  0  0  0  0  0  0  0  0  0  0  0
 -119.4530  205.2390   -0.0440 C   0  0  0  0  0  0  0  0  0  0  0  0
 -119.4860  207.6720   -0.3040 O   0  0  0  0  0  0  0  0  0  0  0  0
 -119.6310  206.6680    0.3880 C   0  0  0  0  0  0  0  0  0  0  0  0
 -119.8050  203.0720    1.3890 C   0  0  0  0  0  0  0  0  0  0  0  0
 -119.7620  204.4410    1.1260 C   0  0  0  0  0  0  0  0  0  0  0  0
 -119.9990  206.6390    1.6880 N   0  0  0  0  0  0  0  0  0  0  0  0
 -120.1620  202.6260    2.6530 C   0  0  0  0  0  0  0  0  0  0  0  0
 -120.4750  203.5260    3.6630 C   0  0  0  0  0  0  0  0  0  0  0  0
 -120.4420  204.8930    3.4300 C   0  0  0  0  0  0  0  0  0  0  0  0
 -120.0870  205.3380    2.1650 C   0  0  0  0  0  0  0  0  0  0  0  0
  1  2  2  0
  3  4  1  0
  2  4  1  0
  4  5  2  0
  5  6  1  0
  3  7  2  0
  1  8  1  0
  6  8  2  0
  3  9  1  0
  8 10  1  0
 10 11  2  0
 12 13  2  0
 11 13  1  0
 11 15  1  0
 14 15  2  0
 13 16  1  0
 14 17  1  0
 17 18  2  0
 18 19  1  0
 15 20  1  0
 16 20  1  0
 19 20  2  0
M  END
$$$$
