7MAE_XUS_A_101
     RDKit          3D

 99102  0  0  0  0  0  0  0  0999 V2000
   19.6813   -0.7944   16.1367 C   0  0  1  0  0  0  0  0  0  0  0  0
   20.3588   -0.0069   17.2946 C   0  0  2  0  0  0  0  0  0  0  0  0
   22.3425    0.4402   15.7082 C   0  0  0  0  0  0  0  0  0  0  0  0
   24.3958    0.5555   14.3103 C   0  0  1  0  0  0  0  0  0  0  0  0
   24.7771    1.9807   13.9678 C   0  0  2  0  0  0  0  0  0  0  0  0
   26.5739    0.7123   13.3817 C   0  0  1  0  0  0  0  0  0  0  0  0
   27.6365    0.7815   15.3708 C   0  0  1  0  0  0  0  0  0  0  0  0
   19.5924    1.2915   17.6215 C   0  0  2  0  0  0  0  0  0  0  0  0
   19.9664   -8.1265   16.7658 C   0  0  0  0  0  0  0  0  0  0  0  0
   20.6530   -6.9049   16.7447 C   0  0  0  0  0  0  0  0  0  0  0  0
   19.9512   -5.7044   16.6032 C   0  0  0  0  0  0  0  0  0  0  0  0
   18.5545   -5.7123   16.4738 C   0  0  0  0  0  0  0  0  0  0  0  0
   17.8678   -6.9347   16.5027 C   0  0  0  0  0  0  0  0  0  0  0  0
   18.5705   -8.1352   16.6460 C   0  0  0  0  0  0  0  0  0  0  0  0
   19.2756   -3.6277   14.2810 C   0  0  1  0  0  0  0  0  0  0  0  0
   19.5785   -2.3315   16.3587 C   0  0  1  0  0  0  0  0  0  0  0  0
   25.7262   -0.1650   14.2852 C   0  0  1  0  0  0  0  0  0  0  0  0
   26.5013   -0.1956   15.5926 C   0  0  1  0  0  0  0  0  0  0  0  0
   18.5185    1.0484   18.6510 C   0  0  0  0  0  0  0  0  0  0  0  0
   17.7035   -0.0906   18.5630 C   0  0  0  0  0  0  0  0  0  0  0  0
   16.7200   -0.3311   19.5264 C   0  0  0  0  0  0  0  0  0  0  0  0
   16.5283    0.5638   20.5844 C   0  0  0  0  0  0  0  0  0  0  0  0
   17.3729    1.6838   20.6974 C   0  0  0  0  0  0  0  0  0  0  0  0
   18.3593    1.9232   19.7365 C   0  0  0  0  0  0  0  0  0  0  0  0
   19.8069   -3.1794   10.9928 C   0  0  1  0  0  0  0  0  0  0  0  0
   18.3651   -3.7247   13.0340 C   0  0  2  0  0  0  0  0  0  0  0  0
   18.7270   -2.6817   11.9541 C   0  0  2  0  0  0  0  0  0  0  0  0
   16.8784   -3.6741   13.4233 C   0  0  2  0  0  0  0  0  0  0  0  0
   14.9749    1.2365   22.4416 C   0  0  2  0  0  0  0  0  0  0  0  0
   17.1658    2.0450   25.6338 C   0  0  2  0  0  0  0  0  0  0  0  0
   13.0753    0.7602   24.7798 C   0  0  1  0  0  0  0  0  0  0  0  0
   18.2416    1.8235   24.5798 C   0  0  1  0  0  0  0  0  0  0  0  0
   11.9353    0.0292   25.4689 C   0  0  1  0  0  0  0  0  0  0  0  0
   18.6069   -2.9851   15.4433 N   0  0  0  0  0  0  0  0  0  0  0  0
   21.7741    0.2802   17.0160 N   0  0  0  0  0  0  0  0  0  0  0  0
   20.6835   -9.3545   16.9103 N   0  0  0  0  0  0  0  0  0  0  0  0
   17.2617   -3.7058   17.6538 O   0  0  0  0  0  0  0  0  0  0  0  0
   16.3973   -4.4691   15.5227 O   0  0  0  0  0  0  0  0  0  0  0  0
   18.4242   -0.2428   15.8273 O   0  0  0  0  0  0  0  0  0  0  0  0
   21.6029    0.5510   14.6928 O   0  0  0  0  0  0  0  0  0  0  0  0
   23.7331    0.4617   15.5723 O   0  0  0  0  0  0  0  0  0  0  0  0
   25.9224    1.9462   13.1505 O   0  0  0  0  0  0  0  0  0  0  0  0
   27.8233    0.9435   13.9883 O   0  0  0  0  0  0  0  0  0  0  0  0
   15.4918    0.3039   21.4942 O   0  0  0  0  0  0  0  0  0  0  0  0
   15.9260    2.2247   24.9905 O   0  0  0  0  0  0  0  0  0  0  0  0
   14.2644    0.0305   24.9691 O   0  0  0  0  0  0  0  0  0  0  0  0
   16.7363   -0.1135   24.0478 O   0  0  0  0  0  0  0  0  0  0  0  0
   15.5340    0.8034   24.1276 P   0  0  1  0  0  5  0  0  0  0  0  0
   17.6607   -4.1978   16.2934 S   0  0  2  0  0  6  0  0  0  0  0  0
   20.3152   -0.6518   15.2345 H   0  0  0  0  0  0  0  0  0  0  0  0
   20.3036   -0.6352   18.2066 H   0  0  0  0  0  0  0  0  0  0  0  0
   23.7484    0.1376   13.5077 H   0  0  0  0  0  0  0  0  0  0  0  0
   25.0057    2.5599   14.8904 H   0  0  0  0  0  0  0  0  0  0  0  0
   23.9488    2.4847   13.4273 H   0  0  0  0  0  0  0  0  0  0  0  0
   26.7334    0.2070   12.4055 H   0  0  0  0  0  0  0  0  0  0  0  0
   27.3890    1.7671   15.8253 H   0  0  0  0  0  0  0  0  0  0  0  0
   28.5743    0.4032   15.8312 H   0  0  0  0  0  0  0  0  0  0  0  0
   19.1145    1.6837   16.6977 H   0  0  0  0  0  0  0  0  0  0  0  0
   20.2890    2.0823   17.9715 H   0  0  0  0  0  0  0  0  0  0  0  0
   21.7306   -6.8827   16.8397 H   0  0  0  0  0  0  0  0  0  0  0  0
   20.4997   -4.7720   16.5961 H   0  0  0  0  0  0  0  0  0  0  0  0
   16.7887   -6.9623   16.4187 H   0  0  0  0  0  0  0  0  0  0  0  0
   18.0254   -9.0707   16.6629 H   0  0  0  0  0  0  0  0  0  0  0  0
   19.5551   -4.6776   14.5157 H   0  0  0  0  0  0  0  0  0  0  0  0
   20.2380   -3.1267   14.0287 H   0  0  0  0  0  0  0  0  0  0  0  0
   20.6015   -2.7313   16.1978 H   0  0  0  0  0  0  0  0  0  0  0  0
   19.3730   -2.5711   17.4207 H   0  0  0  0  0  0  0  0  0  0  0  0
   25.6123   -1.1941   13.8743 H   0  0  0  0  0  0  0  0  0  0  0  0
   26.9167   -1.2151   15.7531 H   0  0  0  0  0  0  0  0  0  0  0  0
   25.9103    0.0848   16.4910 H   0  0  0  0  0  0  0  0  0  0  0  0
   17.8300   -0.7924   17.7484 H   0  0  0  0  0  0  0  0  0  0  0  0
   16.0869   -1.2050   19.4384 H   0  0  0  0  0  0  0  0  0  0  0  0
   17.2819    2.3708   21.5253 H   0  0  0  0  0  0  0  0  0  0  0  0
   19.0001    2.7895   19.8406 H   0  0  0  0  0  0  0  0  0  0  0  0
   20.6208   -3.6948   11.5452 H   0  0  0  0  0  0  0  0  0  0  0  0
   19.3621   -3.9056   10.2797 H   0  0  0  0  0  0  0  0  0  0  0  0
   20.2314   -2.3325   10.4124 H   0  0  0  0  0  0  0  0  0  0  0  0
   18.5525   -4.7306   12.5951 H   0  0  0  0  0  0  0  0  0  0  0  0
   17.8333   -2.4025   11.3644 H   0  0  0  0  0  0  0  0  0  0  0  0
   19.1137   -1.7632   12.4469 H   0  0  0  0  0  0  0  0  0  0  0  0
   16.4718   -2.6498   13.3147 H   0  0  0  0  0  0  0  0  0  0  0  0
   16.7459   -3.9977   14.4771 H   0  0  0  0  0  0  0  0  0  0  0  0
   16.2857   -4.3623   12.7847 H   0  0  0  0  0  0  0  0  0  0  0  0
   13.8712    1.2941   22.3814 H   0  0  0  0  0  0  0  0  0  0  0  0
   15.3719    2.2407   22.1896 H   0  0  0  0  0  0  0  0  0  0  0  0
   17.4310    2.9543   26.2172 H   0  0  0  0  0  0  0  0  0  0  0  0
   17.1612    1.1573   26.3058 H   0  0  0  0  0  0  0  0  0  0  0  0
   12.8378    0.8383   23.6959 H   0  0  0  0  0  0  0  0  0  0  0  0
   13.1434    1.7777   25.2237 H   0  0  0  0  0  0  0  0  0  0  0  0
   18.1100    0.8243   24.1136 H   0  0  0  0  0  0  0  0  0  0  0  0
   18.1647    2.6014   23.7890 H   0  0  0  0  0  0  0  0  0  0  0  0
   19.2500    1.8741   25.0473 H   0  0  0  0  0  0  0  0  0  0  0  0
   12.3277   -0.5741   26.3161 H   0  0  0  0  0  0  0  0  0  0  0  0
   11.1925    0.7605   25.8577 H   0  0  0  0  0  0  0  0  0  0  0  0
   11.4281   -0.6460   24.7476 H   0  0  0  0  0  0  0  0  0  0  0  0
   22.4218    0.3630   17.8313 H   0  0  0  0  0  0  0  0  0  0  0  0
   21.7084   -9.3553   17.1094 H   0  0  0  0  0  0  0  0  0  0  0  0
   20.1954  -10.2725   16.8216 H   0  0  0  0  0  0  0  0  0  0  0  0
   17.7928   -0.4984   16.5496 H   0  0  0  0  0  0  0  0  0  0  0  0
  1  2  1  0
  4  5  1  0
  2  8  1  0
  9 10  2  0
 10 11  1  0
 11 12  2  0
 12 13  1  0
  9 14  1  0
 13 14  2  0
  1 16  1  0
  4 17  1  0
  6 17  1  0
  7 18  1  0
 17 18  1  0
  8 19  1  0
 19 20  2  0
 20 21  1  0
 21 22  2  0
 22 23  1  0
 19 24  1  0
 23 24  2  0
 15 26  1  0
 26 27  1  0
 25 27  1  0
 26 28  1  0
 30 32  1  0
 31 33  1  0
 15 34  1  0
 16 34  1  0
  2 35  1  0
  3 35  1  0
  9 36  1  0
  1 39  1  0
  3 40  2  0
  3 41  1  0
  4 41  1  0
  5 42  1  0
  6 42  1  0
  7 43  1  0
  6 43  1  0
 22 44  1  0
 29 44  1  0
 30 45  1  0
 31 46  1  0
 29 48  1  0
 47 48  2  0
 48 45  1  1
 46 48  1  0
 12 49  1  0
 49 34  1  6
 37 49  2  0
 38 49  2  0
  1 50  1  6
  2 51  1  1
  4 52  1  6
  5 53  1  1
  5 54  1  0
  6 55  1  6
  7 56  1  1
  7 57  1  0
  8 58  1  6
  8 59  1  0
 10 60  1  0
 11 61  1  0
 13 62  1  0
 14 63  1  0
 15 64  1  1
 15 65  1  0
 16 66  1  6
 16 67  1  0
 17 68  1  6
 18 69  1  1
 18 70  1  0
 20 71  1  0
 21 72  1  0
 23 73  1  0
 24 74  1  0
 25 75  1  1
 25 76  1  0
 25 77  1  0
 26 78  1  6
 27 79  1  6
 27 80  1  0
 28 81  1  1
 28 82  1  0
 28 83  1  0
 29 84  1  1
 29 85  1  0
 30 86  1  1
 30 87  1  0
 31 88  1  6
 31 89  1  0
 32 90  1  6
 32 91  1  0
 32 92  1  0
 33 93  1  1
 33 94  1  0
 33 95  1  0
 35 96  1  0
 36 97  1  0
 36 98  1  0
 39 99  1  0
M  END
