7P1M_4IU_B_201
     RDKit          3D

 42 44  0  0  0  0  0  0  0  0999 V2000
    2.4538   -3.4021   -2.0500 O   0  0  0  0  0  0  0  0  0  0  0  0
    1.2860   -2.6481   -1.9659 C   0  0  0  0  0  0  0  0  0  0  0  0
    0.3988   -2.7837   -2.8516 O   0  0  0  0  0  0  0  0  0  0  0  0
    1.0905   -1.6987   -0.8486 C   0  0  0  0  0  0  0  0  0  0  0  0
    2.1601   -0.8647   -0.4270 C   0  0  0  0  0  0  0  0  0  0  0  0
    1.9919    0.0387    0.6372 C   0  0  0  0  0  0  0  0  0  0  0  0
    0.7478    0.0911    1.2557 C   0  0  0  0  0  0  0  0  0  0  0  0
    0.3882    0.8603    2.2982 N   0  0  0  0  0  0  0  0  0  0  0  0
   -0.1599   -1.6146   -0.1894 C   0  0  0  0  0  0  0  0  0  0  0  0
   -0.2908   -0.6987    0.8585 C   0  0  0  0  0  0  0  0  0  0  0  0
   -1.3569   -0.4374    1.6372 N   0  0  0  0  0  4  0  0  0  0  0  0
   -2.6704   -1.0819    1.6183 C   0  0  0  0  0  0  0  0  0  0  0  0
   -0.9057    0.5045    2.5110 C   0  0  0  0  0  0  0  0  0  0  0  0
   -1.7135    1.0840    3.6397 C   0  0  0  0  0  0  0  0  0  0  0  0
   -1.2904    2.4048    3.9176 O   0  0  0  0  0  0  0  0  0  0  0  0
   -0.2296    2.7994    3.0610 C   0  0  2  0  0  0  0  0  0  0  0  0
   -0.3805    2.1220    1.7194 C   0  0  0  0  0  0  0  0  0  0  0  0
    0.6875    1.7603    1.0019 C   0  0  0  0  0  0  0  0  0  0  0  0
    1.9851    1.9322    1.5023 O   0  0  0  0  0  0  0  0  0  0  0  0
    2.2510    2.6616    2.7030 C   0  0  1  0  0  0  0  0  0  0  0  0
    1.1123    2.4256    3.7214 C   0  0  2  0  0  0  0  0  0  0  0  0
    1.0797    1.0757    4.1174 O   0  0  0  0  0  0  0  0  0  0  0  0
    3.6308    2.2660    3.2469 C   0  0  0  0  0  0  0  0  0  0  0  0
    4.4368    3.3972    3.4409 O   0  0  0  0  0  0  0  0  0  0  0  0
    2.5979   -4.0551   -2.8110 H   0  0  0  0  0  0  0  0  0  0  0  0
    3.1244   -0.9151   -0.9165 H   0  0  0  0  0  0  0  0  0  0  0  0
    2.8071    0.6698    0.9669 H   0  0  0  0  0  0  0  0  0  0  0  0
   -0.9881   -2.2431   -0.4860 H   0  0  0  0  0  0  0  0  0  0  0  0
   -2.7494   -1.7927    2.4671 H   0  0  0  0  0  0  0  0  0  0  0  0
   -3.4698   -0.3163    1.6997 H   0  0  0  0  0  0  0  0  0  0  0  0
   -2.8349   -1.6309    0.6699 H   0  0  0  0  0  0  0  0  0  0  0  0
   -2.7726    1.1241    3.3112 H   0  0  0  0  0  0  0  0  0  0  0  0
   -1.6951    0.4437    4.5492 H   0  0  0  0  0  0  0  0  0  0  0  0
   -0.2037    3.9018    2.8824 H   0  0  0  0  0  0  0  0  0  0  0  0
   -1.3703    1.9805    1.3034 H   0  0  0  0  0  0  0  0  0  0  0  0
    0.5518    1.3019    0.0313 H   0  0  0  0  0  0  0  0  0  0  0  0
    2.2776    3.7453    2.4504 H   0  0  0  0  0  0  0  0  0  0  0  0
    1.2562    3.0903    4.6071 H   0  0  0  0  0  0  0  0  0  0  0  0
    1.6386    0.9979    4.9340 H   0  0  0  0  0  0  0  0  0  0  0  0
    3.5196    1.7328    4.2146 H   0  0  0  0  0  0  0  0  0  0  0  0
    4.1244    1.5634    2.5377 H   0  0  0  0  0  0  0  0  0  0  0  0
    4.7220    3.7005    2.5396 H   0  0  0  0  0  0  0  0  0  0  0  0
  1  2  1  0
  2  3  2  0
  2  4  1  0
  4  5  4  0
  5  6  4  0
  6  7  4  0
  7  8  4  0
  4  9  4  0
  7 10  4  0
  9 10  4  0
 10 11  4  0
 11 12  1  0
  8 13  4  0
 11 13  4  0
 13 14  1  0
 14 15  1  0
 16 15  1  0
 16 17  1  0
 17 18  2  0
 18 19  1  0
 19 20  1  0
 16 21  1  0
 20 21  1  0
 21 22  1  0
 20 23  1  0
 23 24  1  0
  1 25  1  0
  5 26  1  0
  6 27  1  0
  9 28  1  0
 12 29  1  0
 12 30  1  0
 12 31  1  0
 14 32  1  0
 14 33  1  0
 16 34  1  6
 17 35  1  0
 18 36  1  0
 20 37  1  6
 21 38  1  1
 22 39  1  0
 23 40  1  0
 23 41  1  0
 24 42  1  0
M  CHG  1  11   1
M  END
