6TW7_NZB_AAA_1003
     RDKit          3D

 29 32  0  0  0  0  0  0  0  0999 V2000
    3.2040   45.6010   59.0160 C   0  0  0  0  0  0  0  0  0  0  0  0
    1.8120   45.1880   59.3990 C   0  0  0  0  0  0  0  0  0  0  0  0
    0.4590   46.2400   57.6330 C   0  0  0  0  0  0  0  0  0  0  0  0
    4.2500   44.8330   58.6900 N   0  0  0  0  0  0  0  0  0  0  0  0
    5.1240   49.2650   58.7700 C   0  0  0  0  0  0  0  0  0  0  0  0
    5.8310   48.0700   58.5290 C   0  0  0  0  0  0  0  0  0  0  0  0
    5.0820   46.8620   58.6310 C   0  0  0  0  0  0  0  0  0  0  0  0
    3.7720   49.3210   59.1450 C   0  0  0  0  0  0  0  0  0  0  0  0
    5.4100   52.4860   61.4630 C   0  0  0  0  0  0  0  0  0  0  0  0
    6.7760   51.9420   61.8150 C   0  0  0  0  0  0  0  0  0  0  0  0
    6.7470   50.7890   62.7710 C   0  0  0  0  0  0  0  0  0  0  0  0
    3.5880   51.6980   60.0900 C   0  0  0  0  0  0  0  0  0  0  0  0
    2.8660   52.8970   60.2380 C   0  0  0  0  0  0  0  0  0  0  0  0
    6.9430   49.4940   62.2630 C   0  0  0  0  0  0  0  0  0  0  0  0
    3.0160   50.6110   59.3480 C   0  0  0  0  0  0  0  0  0  0  0  0
    3.6870   46.9700   58.9920 C   0  0  0  0  0  0  0  0  0  0  0  0
    3.0730   48.1770   59.2770 C   0  0  0  0  0  0  0  0  0  0  0  0
    1.6650   52.9470   59.5640 C   0  0  0  0  0  0  0  0  0  0  0  0
    1.1130   51.9360   58.7920 C   0  0  0  0  0  0  0  0  0  0  0  0
    1.8190   50.7440   58.6660 C   0  0  0  0  0  0  0  0  0  0  0  0
    5.3890   45.5560   58.4080 N   0  0  0  0  0  0  0  0  0  0  0  0
    0.8740   54.0470   59.6460 F   0  0  0  0  0  0  0  0  0  0  0  0
    0.8250   44.9940   58.3020 N   0  0  0  0  0  0  0  0  0  0  0  0
    1.2730   43.8760   57.4260 C   0  0  0  0  0  0  0  0  0  0  0  0
    4.7510   51.4850   60.6970 O   0  0  0  0  0  0  0  0  0  0  0  0
    6.5000   50.9980   64.1300 C   0  0  0  0  0  0  0  0  0  0  0  0
    6.4590   49.9770   65.0350 N   0  0  0  0  0  0  0  0  0  0  0  0
    6.6380   48.7170   64.5680 C   0  0  0  0  0  0  0  0  0  0  0  0
    6.9000   48.4850   63.2290 C   0  0  0  0  0  0  0  0  0  0  0  0
  1  2  1  0
  1  4  1  0
  5  6  2  0
  6  7  1  0
  5  8  1  0
  9 10  1  0
 10 11  1  0
 12 13  2  0
 11 14  2  0
  8 15  1  0
 12 15  1  0
  7 16  1  0
  1 16  2  0
 16 17  1  0
  8 17  2  0
 13 18  1  0
 18 19  2  0
 19 20  1  0
 15 20  2  0
  7 21  2  0
  4 21  1  0
 18 22  1  0
  3 23  1  0
  2 23  1  0
 23 24  1  0
 12 25  1  0
  9 25  1  0
 11 26  1  0
 26 27  2  0
 27 28  1  0
 14 29  1  0
 28 29  2  0
M  END
$$$$
