1Z95_198_A_501
     RDKit          3D

 43 44  0  0  0  0  0  0  0  0999 V2000
   27.6315    4.2734    4.1422 C   0  0  0  0  0  0  0  0  0  0  0  0
   26.8849    5.2540    4.7894 C   0  0  0  0  0  0  0  0  0  0  0  0
   25.8520    5.8972    4.1140 C   0  0  0  0  0  0  0  0  0  0  0  0
   25.1238    6.8472    4.7335 F   0  0  0  0  0  0  0  0  0  0  0  0
   25.5662    5.5628    2.7940 C   0  0  0  0  0  0  0  0  0  0  0  0
   26.3141    4.5839    2.1471 C   0  0  0  0  0  0  0  0  0  0  0  0
   27.3456    3.9392    2.8212 C   0  0  0  0  0  0  0  0  0  0  0  0
   28.2622    2.6913    2.0092 S   0  0  2  0  0  6  0  0  0  0  0  0
   29.2361    3.3356    1.0670 O   0  0  0  0  0  0  0  0  0  0  0  0
   27.3294    1.8028    1.2422 O   0  0  0  0  0  0  0  0  0  0  0  0
   29.1599    1.6992    3.2592 C   0  0  0  0  0  0  0  0  0  0  0  0
   28.8697    2.0824    4.7129 C   0  0  2  0  0  0  0  0  0  0  0  0
   28.1743    1.0089    5.3520 O   0  0  0  0  0  0  0  0  0  0  0  0
   28.0204    3.3539    4.7668 C   0  0  0  0  0  0  0  0  0  0  0  0
   30.1793    2.3299    5.4664 C   0  0  0  0  0  0  0  0  0  0  0  0
   31.1926    1.6880    5.1910 O   0  0  0  0  0  0  0  0  0  0  0  0
   30.0693    3.1877    6.4780 N   0  0  0  0  0  0  0  0  0  0  0  0
   29.0977    3.2047    7.3913 C   0  0  0  0  0  0  0  0  0  0  0  0
   27.7449    3.2865    7.0688 C   0  0  0  0  0  0  0  0  0  0  0  0
   29.4600    3.0183    8.7208 C   0  0  0  0  0  0  0  0  0  0  0  0
   28.4748    2.9276    9.6986 C   0  0  0  0  0  0  0  0  0  0  0  0
   27.1272    3.0127    9.3610 C   0  0  0  0  0  0  0  0  0  0  0  0
   26.1989    2.9368   10.4483 C   0  0  0  0  0  0  0  0  0  0  0  0
   25.4728    2.8689   11.3221 N   0  0  0  0  0  0  0  0  0  0  0  0
   26.7356    3.1855    8.0291 C   0  0  0  0  0  0  0  0  0  0  0  0
   25.2648    3.2559    7.5751 C   0  0  2  0  0  0  0  0  0  0  0  0
   24.6369    2.1388    7.9291 F   0  0  0  0  0  0  0  0  0  0  0  0
   25.0999    3.4093    6.2642 F   0  0  0  0  0  0  0  0  0  0  0  0
   24.6172    4.2781    8.1290 F   0  0  0  0  0  0  0  0  0  0  0  0
   28.3969    3.7941    4.6415 H   0  0  0  0  0  0  0  0  0  0  0  0
   27.0969    5.5036    5.7680 H   0  0  0  0  0  0  0  0  0  0  0  0
   24.7997    6.0407    2.2949 H   0  0  0  0  0  0  0  0  0  0  0  0
   26.1034    4.3364    1.1677 H   0  0  0  0  0  0  0  0  0  0  0  0
   28.8901    0.6724    3.1255 H   0  0  0  0  0  0  0  0  0  0  0  0
   30.2014    1.8863    3.1007 H   0  0  0  0  0  0  0  0  0  0  0  0
   27.3410    0.8401    4.8851 H   0  0  0  0  0  0  0  0  0  0  0  0
   27.1018    3.1918    4.2426 H   0  0  0  0  0  0  0  0  0  0  0  0
   27.8104    3.5997    5.7869 H   0  0  0  0  0  0  0  0  0  0  0  0
   28.5551    4.1596    4.3087 H   0  0  0  0  0  0  0  0  0  0  0  0
   30.7707    3.8738    6.5596 H   0  0  0  0  0  0  0  0  0  0  0  0
   27.4780    3.4273    6.0819 H   0  0  0  0  0  0  0  0  0  0  0  0
   30.4561    2.9475    8.9812 H   0  0  0  0  0  0  0  0  0  0  0  0
   28.7461    2.7958   10.6855 H   0  0  0  0  0  0  0  0  0  0  0  0
  1  2  2  0
  2  3  1  0
  3  4  1  0
  3  5  2  0
  5  6  1  0
  1  7  1  0
  6  7  2  0
  7  8  1  0
  8  9  2  0
  8 10  2  0
  8 11  1  6
 11 12  1  0
 12 13  1  6
 12 14  1  0
 12 15  1  0
 15 16  2  0
 15 17  1  0
 17 18  1  0
 18 19  2  0
 18 20  1  0
 20 21  2  0
 21 22  1  0
 22 23  1  0
 23 24  3  0
 19 25  1  0
 22 25  2  0
 25 26  1  0
 26 27  1  6
 26 28  1  0
 26 29  1  0
  1 30  1  0
  2 31  1  0
  5 32  1  0
  6 33  1  0
 11 34  1  0
 11 35  1  0
 13 36  1  0
 14 37  1  0
 14 38  1  0
 14 39  1  0
 17 40  1  0
 19 41  1  0
 20 42  1  0
 21 43  1  0
M  END
