7KRU_ATP_A_607
     RDKit          3D

 47 49  0  0  0  0  0  0  0  0999 V2000
   51.6326   42.4669  206.4987 P   0  0  1  0  0  5  0  0  0  0  0  0
   51.5603   43.4643  207.6245 O   0  0  0  0  0  0  0  0  0  0  0  0
   52.0856   43.0408  205.1777 O   0  0  0  0  0  0  0  0  0  0  0  0
   52.2442   41.1512  206.8204 O   0  0  0  0  0  0  0  0  0  0  0  0
   49.5133   40.6194  205.6746 P   0  0  2  0  0  5  0  0  0  0  0  0
   48.0936   40.3833  206.1201 O   0  0  0  0  0  0  0  0  0  0  0  0
   50.5299   39.5241  205.9434 O   0  0  0  0  0  0  0  0  0  0  0  0
   50.0701   42.0314  206.2516 O   0  0  0  0  0  0  0  0  0  0  0  0
   48.4458   41.8255  203.3191 P   0  0  1  0  0  5  0  0  0  0  0  0
   47.8884   42.8830  204.2478 O   0  0  0  0  0  0  0  0  0  0  0  0
   48.9630   42.2055  201.9473 O   0  0  0  0  0  0  0  0  0  0  0  0
   49.5781   40.9660  204.0878 O   0  0  0  0  0  0  0  0  0  0  0  0
   47.3652   40.6483  203.1403 O   0  0  0  0  0  0  0  0  0  0  0  0
   47.2249   39.6226  204.1432 C   0  0  0  0  0  0  0  0  0  0  0  0
   47.1496   38.2386  203.5066 C   0  0  2  0  0  0  0  0  0  0  0  0
   46.5885   38.3744  202.1943 O   0  0  0  0  0  0  0  0  0  0  0  0
   46.2596   37.2696  204.2782 C   0  0  2  0  0  0  0  0  0  0  0  0
   46.8772   35.9880  204.2873 O   0  0  0  0  0  0  0  0  0  0  0  0
   44.9601   37.2600  203.4836 C   0  0  2  0  0  0  0  0  0  0  0  0
   44.2344   36.0354  203.6085 O   0  0  0  0  0  0  0  0  0  0  0  0
   45.4816   37.4871  202.0721 C   0  0  1  0  0  0  0  0  0  0  0  0
   44.5220   38.1405  201.1673 N   0  0  0  0  0  4  0  0  0  0  0  0
   44.8029   38.8952  200.0811 C   0  0  0  0  0  0  0  0  0  0  0  0
   43.6503   39.3143  199.4714 N   0  0  0  0  0  0  0  0  0  0  0  0
   42.6316   38.7972  200.2023 C   0  0  0  0  0  0  0  0  0  0  0  0
   41.1641   38.8391  200.1250 C   0  0  0  0  0  0  0  0  0  0  0  0
   40.5718   39.5316  199.1231 N   0  0  0  0  0  0  0  0  0  0  0  0
   40.4738   38.1867  201.0693 N   0  0  0  0  0  0  0  0  0  0  0  0
   41.0644   37.5051  202.0605 C   0  0  0  0  0  0  0  0  0  0  0  0
   42.3943   37.4153  202.1869 N   0  0  0  0  0  0  0  0  0  0  0  0
   43.2040   38.0383  201.3082 C   0  0  0  0  0  0  0  0  0  0  0  0
   53.0109   43.3232  205.2481 H   0  0  0  0  0  0  0  0  0  0  0  0
   53.1916   41.2684  206.9925 H   0  0  0  0  0  0  0  0  0  0  0  0
   50.5157   39.2938  206.8855 H   0  0  0  0  0  0  0  0  0  0  0  0
   49.6177   42.9160  202.0340 H   0  0  0  0  0  0  0  0  0  0  0  0
   48.0681   39.6593  204.8009 H   0  0  0  0  0  0  0  0  0  0  0  0
   46.3183   39.7976  204.6839 H   0  0  0  0  0  0  0  0  0  0  0  0
   48.1443   37.8443  203.4981 H   0  0  0  0  0  0  0  0  0  0  0  0
   46.0951   37.5416  205.2999 H   0  0  0  0  0  0  0  0  0  0  0  0
   47.0444   35.7031  203.3752 H   0  0  0  0  0  0  0  0  0  0  0  0
   44.2473   37.9866  203.8136 H   0  0  0  0  0  0  0  0  0  0  0  0
   44.7974   35.2961  203.3302 H   0  0  0  0  0  0  0  0  0  0  0  0
   45.7087   36.5280  201.6554 H   0  0  0  0  0  0  0  0  0  0  0  0
   45.7553   39.1240  199.7560 H   0  0  0  0  0  0  0  0  0  0  0  0
   41.1233   39.9951  198.4521 H   0  0  0  0  0  0  0  0  0  0  0  0
   39.5898   39.5715  199.0658 H   0  0  0  0  0  0  0  0  0  0  0  0
   40.4687   37.0293  202.7561 H   0  0  0  0  0  0  0  0  0  0  0  0
  1  2  2  0
  1  3  1  1
  1  4  1  0
  5  6  2  0
  5  7  1  1
  1  8  1  0
  5  8  1  0
  9 10  2  0
  9 11  1  1
  5 12  1  0
  9 12  1  0
  9 13  1  0
 13 14  1  0
 15 14  1  0
 15 16  1  0
 15 17  1  0
 17 18  1  0
 17 19  1  0
 19 20  1  0
 16 21  1  0
 19 21  1  0
 21 22  1  0
 22 23  4  0
 23 24  4  0
 24 25  4  0
 25 26  4  0
 26 27  1  0
 26 28  4  0
 28 29  4  0
 29 30  4  0
 22 31  4  0
 25 31  4  0
 30 31  4  0
  3 32  1  0
  4 33  1  0
  7 34  1  0
 11 35  1  0
 14 36  1  0
 14 37  1  0
 15 38  1  1
 17 39  1  6
 18 40  1  0
 19 41  1  6
 20 42  1  0
 21 43  1  1
 23 44  1  0
 27 45  1  0
 27 46  1  0
 29 47  1  0
M  CHG  1  22   1
M  END
