5S8I_2LY_A_1501
     RDKit          3D

 22 23  0  0  0  0  0  0  0  0999 V2000
  -18.7048   13.9247   23.6215 C   0  0  1  0  0  0  0  0  0  0  0  0
  -19.2957   14.3873   24.8713 N   0  0  0  0  0  0  0  0  0  0  0  0
  -19.2416   13.5935   26.0653 C   0  0  0  0  0  0  0  0  0  0  0  0
  -19.7854   14.0863   27.3449 C   0  0  0  0  0  0  0  0  0  0  0  0
  -20.2343   15.3664   27.6601 C   0  0  0  0  0  0  0  0  0  0  0  0
  -20.6652   15.5078   28.9770 C   0  0  0  0  0  0  0  0  0  0  0  0
  -20.5977   14.3517   29.7373 C   0  0  0  0  0  0  0  0  0  0  0  0
  -19.9527   13.1524   28.7429 S   0  0  0  0  0  0  0  0  0  0  0  0
  -21.1033   16.7469   29.4449 O   0  0  0  0  0  0  0  0  0  0  0  0
  -20.8576   17.9307   28.6753 C   0  0  2  0  0  0  0  0  0  0  0  0
  -20.9904   17.6444   27.1643 C   0  0  1  0  0  0  0  0  0  0  0  0
  -20.2607   16.4658   26.8008 O   0  0  0  0  0  0  0  0  0  0  0  0
  -18.7368   12.4387   26.0244 O   0  0  0  0  0  0  0  0  0  0  0  0
  -18.9986   14.6012   22.7913 H   0  0  0  0  0  0  0  0  0  0  0  0
  -17.5978   13.9221   23.7077 H   0  0  0  0  0  0  0  0  0  0  0  0
  -19.0626   12.8991   23.3911 H   0  0  0  0  0  0  0  0  0  0  0  0
  -19.8083   15.2954   24.8640 H   0  0  0  0  0  0  0  0  0  0  0  0
  -20.8778   14.2487   30.7768 H   0  0  0  0  0  0  0  0  0  0  0  0
  -19.8263   18.2867   28.8852 H   0  0  0  0  0  0  0  0  0  0  0  0
  -21.5723   18.7245   28.9780 H   0  0  0  0  0  0  0  0  0  0  0  0
  -22.0632   17.4916   26.9188 H   0  0  0  0  0  0  0  0  0  0  0  0
  -20.6147   18.5084   26.5771 H   0  0  0  0  0  0  0  0  0  0  0  0
  1  2  1  0
  2  3  1  0
  3  4  1  0
  4  5  2  0
  5  6  1  0
  6  7  2  0
  7  8  1  0
  4  8  1  0
  6  9  1  0
  9 10  1  0
 10 11  1  0
  5 12  1  0
 11 12  1  0
  3 13  2  0
  1 14  1  6
  1 15  1  0
  1 16  1  0
  2 17  1  0
  7 18  1  0
 10 19  1  6
 10 20  1  0
 11 21  1  1
 11 22  1  0
M  END
