8C5D_GTB_B_302
     RDKit          3D

 30 30  0  0  0  0  0  0  0  0999 V2000
  -36.0701   -3.4386   16.6692 N   0  0  0  0  0  0  0  0  0  0  0  0
  -34.7428   -3.6481   17.2267 C   0  0  2  0  0  0  0  0  0  0  0  0
  -33.9751   -2.3358   17.3094 C   0  0  0  0  0  0  0  0  0  0  0  0
  -34.3465   -1.4704   18.1451 O   0  0  0  0  0  0  0  0  0  0  0  0
  -32.9748   -2.1427   16.5457 O   0  0  0  0  0  0  0  0  0  0  0  0
  -33.9785   -4.6068   16.3144 C   0  0  0  0  0  0  0  0  0  0  0  0
  -33.2364   -5.6314   17.1489 C   0  0  0  0  0  0  0  0  0  0  0  0
  -32.7008   -5.0019   18.4316 C   0  0  0  0  0  0  0  0  0  0  0  0
  -32.8811   -5.4135   19.5427 O   0  0  0  0  0  0  0  0  0  0  0  0
  -31.9429   -3.8203   18.1656 N   0  0  0  0  0  0  0  0  0  0  0  0
  -32.2610   -2.5756   18.7649 C   0  0  2  0  0  0  0  0  0  0  0  0
  -32.4528   -1.5039   17.7193 C   0  0  0  0  0  0  0  0  0  0  0  0
  -32.9259   -1.7507   16.6499 O   0  0  0  0  0  0  0  0  0  0  0  0
  -31.0160   -2.1083   19.5364 C   0  0  0  0  0  0  0  0  0  0  0  0
  -30.8335   -2.9592   21.1164 S   0  0  0  0  0  0  0  0  0  0  0  0
  -31.9848   -0.1809   18.0585 N   0  0  0  0  0  0  0  0  0  0  0  0
  -32.0822    0.8997   17.1129 C   0  0  0  0  0  0  0  0  0  0  0  0
  -32.2797    0.4831   15.6697 C   0  0  0  0  0  0  0  0  0  0  0  0
  -33.0777    1.1936   14.9813 O   0  0  0  0  0  0  0  0  0  0  0  0
  -31.6704   -0.5078   15.1956 O   0  0  0  0  0  0  0  0  0  0  0  0
  -32.1323   -2.2934   22.2081 C   0  0  0  0  0  0  0  0  0  0  0  0
  -31.7187   -0.9309   22.7667 C   0  0  0  0  0  0  0  0  0  0  0  0
  -30.7866   -0.1510   22.1000 C   0  0  0  0  0  0  0  0  0  0  0  0
  -30.4235    1.0777   22.6181 C   0  0  0  0  0  0  0  0  0  0  0  0
  -30.9897    1.5287   23.8039 C   0  0  0  0  0  0  0  0  0  0  0  0
  -30.6159    2.8024   24.3701 N   0  0  0  0  0  0  0  0  0  0  0  0
  -30.5657    3.8957   23.5283 O   0  0  0  0  0  0  0  0  0  0  0  0
  -30.3004    2.9124   25.4994 O   0  0  0  0  0  0  0  0  0  0  0  0
  -31.9167    0.7603   24.4677 C   0  0  0  0  0  0  0  0  0  0  0  0
  -32.2771   -0.4719   23.9470 C   0  0  0  0  0  0  0  0  0  0  0  0
  2  1  1  6
  2  3  1  0
  3  4  2  0
  3  5  1  0
  2  6  1  0
  6  7  1  0
  7  8  1  0
  8  9  2  0
  8 10  1  0
 10 11  1  0
 11 12  1  0
 12 13  2  0
 11 14  1  1
 14 15  1  0
 12 16  1  0
 16 17  1  0
 17 18  1  0
 18 19  2  0
 18 20  1  0
 15 21  1  0
 21 22  1  0
 22 23  2  0
 23 24  1  0
 24 25  2  0
 25 26  1  0
 26 27  1  0
 26 28  2  0
 25 29  1  0
 22 30  1  0
 29 30  2  0
M  CHG  2  26   1  27  -1
M  END
