1S3V_TQD_A_187
     RDKit          3D

 27 29  0  0  0  0  0  0  0  0999 V2000
    0.1682   32.0471    0.0353 C   0  0  2  0  0  0  0  0  0  0  0  0
   -1.1091   32.6654    1.9207 C   0  0  0  0  0  0  0  0  0  0  0  0
   -1.5269   31.3087    2.2177 C   0  0  0  0  0  0  0  0  0  0  0  0
   -2.4005   31.0921    3.3871 C   0  0  0  0  0  0  0  0  0  0  0  0
   -3.2981   29.8744    3.2513 C   0  0  1  0  0  0  0  0  0  0  0  0
   -3.0336   29.1105    2.0049 C   0  0  0  0  0  0  0  0  0  0  0  0
   -1.5274   28.9641    1.7359 C   0  0  0  0  0  0  0  0  0  0  0  0
   -1.0882   30.3546    1.4191 C   0  0  0  0  0  0  0  0  0  0  0  0
   -3.2230   29.1223    4.5357 C   0  0  0  0  0  0  0  0  0  0  0  0
   -4.1460   26.7852    4.8291 C   0  0  0  0  0  0  0  0  0  0  0  0
   -5.1899   25.9334    4.5235 C   0  0  0  0  0  0  0  0  0  0  0  0
   -5.0790   24.5615    4.5292 C   0  0  0  0  0  0  0  0  0  0  0  0
   -7.3967   24.2964    3.9677 C   0  0  0  0  0  0  0  0  0  0  0  0
   -3.8733   23.9769    4.8534 C   0  0  0  0  0  0  0  0  0  0  0  0
   -3.6610   21.7796    3.7368 C   0  0  0  0  0  0  0  0  0  0  0  0
   -2.8051   24.7896    5.1650 C   0  0  0  0  0  0  0  0  0  0  0  0
   -0.4795   24.9293    5.9659 C   0  0  0  0  0  0  0  0  0  0  0  0
   -2.9428   26.1763    5.1522 C   0  0  0  0  0  0  0  0  0  0  0  0
   -0.2527   30.6997    0.3438 N   0  0  0  0  0  0  0  0  0  0  0  0
    1.6260   32.1565    0.1162 N   0  0  0  0  0  0  0  0  0  0  0  0
   -0.3537   33.0203    0.9537 N   0  0  0  0  0  0  0  0  0  0  0  0
   -1.5723   33.7337    2.7782 N   0  0  0  0  0  0  0  0  0  0  0  0
   -4.2936   28.2151    4.8181 N   0  0  0  0  0  0  0  0  0  0  0  0
   -6.1329   23.7168    4.2210 O   0  0  0  0  0  0  0  0  0  0  0  0
   -3.6732   22.6028    4.8840 O   0  0  0  0  0  0  0  0  0  0  0  0
   -1.5881   24.2159    5.4925 O   0  0  0  0  0  0  0  0  0  0  0  0
   -5.6439   28.6956    5.1339 C   0  0  0  0  0  0  0  0  0  0  0  0
  2  3  1  0
  4  3  1  6
  4  5  1  0
  5  6  1  0
  6  7  1  6
  3  8  2  0
  7  8  1  1
  5  9  1  1
 10 11  2  0
 11 12  1  0
 12 14  2  0
 14 16  1  0
 10 18  1  0
 16 18  2  0
  1 19  1  0
  8 19  1  0
  1 20  1  1
  1 21  1  0
  2 21  2  0
  2 22  1  0
  9 23  1  6
 10 23  1  0
 12 24  1  0
 13 24  1  1
 14 25  1  0
 15 25  1  6
 16 26  1  0
 17 26  1  1
 27 23  1  6
M  END
$$$$
