7EPV_FDA_A_401
     RDKit          3D

 88 93  0  0  0  0  0  0  0  0999 V2000
    0.4032    2.5737    0.3775 P   0  0  2  0  0  5  0  0  0  0  0  0
   -0.3352    1.2591    0.5951 O   0  0  0  0  0  0  0  0  0  0  0  0
   -0.4431    3.5008   -0.7653 O   0  0  0  0  0  0  0  0  0  0  0  0
    1.9528    2.2298   -0.2712 O   0  0  0  0  0  0  0  0  0  0  0  0
    2.8670    2.1143    0.7982 C   0  0  0  0  0  0  0  0  0  0  0  0
    4.1874    1.5049    0.3020 C   0  0  1  0  0  0  0  0  0  0  0  0
    3.9565    0.2009   -0.1808 O   0  0  0  0  0  0  0  0  0  0  0  0
    4.8622    2.3110   -0.8099 C   0  0  1  0  0  0  0  0  0  0  0  0
    5.6939    3.3082   -0.2762 O   0  0  0  0  0  0  0  0  0  0  0  0
    5.6557    1.2470   -1.5373 C   0  0  1  0  0  0  0  0  0  0  0  0
    6.9535    1.1249   -1.0031 O   0  0  0  0  0  0  0  0  0  0  0  0
    4.8502   -0.0261   -1.2508 C   0  0  2  0  0  0  0  0  0  0  0  0
    4.1042   -0.4423   -2.4372 N   0  0  0  0  0  0  0  0  0  0  0  0
    2.9445    0.0852   -2.9227 C   0  0  0  0  0  0  0  0  0  0  0  0
    2.5799   -0.4320   -4.1272 N   0  0  0  0  0  0  0  0  0  0  0  0
    3.5751   -1.3068   -4.3882 C   0  0  0  0  0  0  0  0  0  0  0  0
    3.7833   -2.0889   -5.5156 C   0  0  0  0  0  0  0  0  0  0  0  0
    2.8607   -2.0838   -6.6062 N   0  0  0  0  0  0  0  0  0  0  0  0
    4.9249   -2.8488   -5.5626 N   0  0  0  0  0  0  0  0  0  0  0  0
    5.8413   -2.8268   -4.5407 C   0  0  0  0  0  0  0  0  0  0  0  0
    5.6233   -2.0361   -3.4414 N   0  0  0  0  0  0  0  0  0  0  0  0
    4.4844   -1.3016   -3.3914 C   0  0  0  0  0  0  0  0  0  0  0  0
   -5.6697   -0.7756   -0.3152 N   0  0  0  0  0  0  0  0  0  0  0  0
   -6.3740   -0.5931   -1.4629 C   0  0  0  0  0  0  0  0  0  0  0  0
   -7.5445   -0.1274   -1.4130 O   0  0  0  0  0  0  0  0  0  0  0  0
   -5.8147   -0.8921   -2.6645 N   0  0  0  0  0  0  0  0  0  0  0  0
   -4.5448   -1.3658   -2.7447 C   0  0  0  0  0  0  0  0  0  0  0  0
   -4.0558   -1.6334   -3.8754 O   0  0  0  0  0  0  0  0  0  0  0  0
   -3.7874   -1.5507   -1.5770 C   0  0  0  0  0  0  0  0  0  0  0  0
   -2.4218   -1.9919   -1.6504 N   0  0  0  0  0  0  0  0  0  0  0  0
   -1.6385   -2.1391   -0.4649 C   0  0  0  0  0  0  0  0  0  0  0  0
   -0.2949   -2.5388   -0.5790 C   0  0  0  0  0  0  0  0  0  0  0  0
    0.4994   -2.7051    0.5625 C   0  0  0  0  0  0  0  0  0  0  0  0
    1.9437   -3.1102    0.3907 C   0  0  0  0  0  0  0  0  0  0  0  0
   -0.0566   -2.4380    1.8393 C   0  0  0  0  0  0  0  0  0  0  0  0
    0.7463   -2.6053    3.1028 C   0  0  0  0  0  0  0  0  0  0  0  0
   -1.4014   -2.0565    1.9449 C   0  0  0  0  0  0  0  0  0  0  0  0
   -2.2138   -1.8872    0.8014 C   0  0  0  0  0  0  0  0  0  0  0  0
   -3.6164   -1.4779    0.8958 N   0  0  0  0  0  0  0  0  0  0  0  0
   -4.3817   -1.2637   -0.3309 C   0  0  0  0  0  0  0  0  0  0  0  0
   -4.2739   -1.3765    2.2213 C   0  0  0  0  0  0  0  0  0  0  0  0
   -3.9529   -0.0380    2.9442 C   0  0  2  0  0  0  0  0  0  0  0  0
   -4.4177   -0.1075    4.2728 O   0  0  0  0  0  0  0  0  0  0  0  0
   -4.4996    1.2287    2.2340 C   0  0  2  0  0  0  0  0  0  0  0  0
   -3.8419    1.3999    1.0006 O   0  0  0  0  0  0  0  0  0  0  0  0
   -4.3523    2.5188    3.1024 C   0  0  2  0  0  0  0  0  0  0  0  0
   -4.7900    3.6372    2.3765 O   0  0  0  0  0  0  0  0  0  0  0  0
   -2.9179    2.7810    3.5712 C   0  0  0  0  0  0  0  0  0  0  0  0
   -2.0480    2.8245    2.4630 O   0  0  0  0  0  0  0  0  0  0  0  0
   -0.4321    2.8355    3.0140 P   0  0  1  0  0  5  0  0  0  0  0  0
   -0.3055    3.6835    4.2619 O   0  0  0  0  0  0  0  0  0  0  0  0
    0.0810    1.2586    3.3563 O   0  0  0  0  0  0  0  0  0  0  0  0
    0.5603    3.4998    1.8041 O   0  0  0  0  0  0  0  0  0  0  0  0
    0.1696    4.2603   -0.9753 H   0  0  0  0  0  0  0  0  0  0  0  0
    2.4790    1.4609    1.6134 H   0  0  0  0  0  0  0  0  0  0  0  0
    3.0852    3.1214    1.2055 H   0  0  0  0  0  0  0  0  0  0  0  0
    4.8752    1.4307    1.1741 H   0  0  0  0  0  0  0  0  0  0  0  0
    4.1025    2.7618   -1.5028 H   0  0  0  0  0  0  0  0  0  0  0  0
    5.9486    3.8976   -1.0307 H   0  0  0  0  0  0  0  0  0  0  0  0
    5.7175    1.4996   -2.6241 H   0  0  0  0  0  0  0  0  0  0  0  0
    7.4526    0.5379   -1.6287 H   0  0  0  0  0  0  0  0  0  0  0  0
    5.5386   -0.8467   -0.9456 H   0  0  0  0  0  0  0  0  0  0  0  0
    2.3818    0.8645   -2.4328 H   0  0  0  0  0  0  0  0  0  0  0  0
    2.0092   -1.4621   -6.6013 H   0  0  0  0  0  0  0  0  0  0  0  0
    3.0366   -2.6903   -7.4328 H   0  0  0  0  0  0  0  0  0  0  0  0
    6.7361   -3.4407   -4.5917 H   0  0  0  0  0  0  0  0  0  0  0  0
   -6.1546   -0.5046    0.5675 H   0  0  0  0  0  0  0  0  0  0  0  0
   -6.3705   -0.7464   -3.5380 H   0  0  0  0  0  0  0  0  0  0  0  0
   -1.9813   -2.1897   -2.5832 H   0  0  0  0  0  0  0  0  0  0  0  0
    0.1292   -2.7323   -1.5642 H   0  0  0  0  0  0  0  0  0  0  0  0
    2.5906   -2.2125    0.4681 H   0  0  0  0  0  0  0  0  0  0  0  0
    2.2487   -3.8410    1.1663 H   0  0  0  0  0  0  0  0  0  0  0  0
    2.1119   -3.6143   -0.5853 H   0  0  0  0  0  0  0  0  0  0  0  0
    0.3091   -2.0061    3.9294 H   0  0  0  0  0  0  0  0  0  0  0  0
    1.7901   -2.2425    2.9632 H   0  0  0  0  0  0  0  0  0  0  0  0
    0.7463   -3.6845    3.4005 H   0  0  0  0  0  0  0  0  0  0  0  0
   -1.7995   -1.8997    2.9337 H   0  0  0  0  0  0  0  0  0  0  0  0
   -5.3672   -1.5474    2.1742 H   0  0  0  0  0  0  0  0  0  0  0  0
   -3.9562   -2.2317    2.8610 H   0  0  0  0  0  0  0  0  0  0  0  0
   -2.8511    0.0706    2.9820 H   0  0  0  0  0  0  0  0  0  0  0  0
   -5.4099   -0.1351    4.2387 H   0  0  0  0  0  0  0  0  0  0  0  0
   -5.5852    1.0801    2.0568 H   0  0  0  0  0  0  0  0  0  0  0  0
   -4.4561    1.9200    0.4202 H   0  0  0  0  0  0  0  0  0  0  0  0
   -4.9894    2.4026    4.0200 H   0  0  0  0  0  0  0  0  0  0  0  0
   -5.7796    3.5843    2.3538 H   0  0  0  0  0  0  0  0  0  0  0  0
   -2.6379    1.9923    4.2963 H   0  0  0  0  0  0  0  0  0  0  0  0
   -2.9036    3.7551    4.1082 H   0  0  0  0  0  0  0  0  0  0  0  0
   -0.5385    0.9227    4.0518 H   0  0  0  0  0  0  0  0  0  0  0  0
  1  2  2  0
  1  3  1  6
  1  4  1  0
  4  5  1  0
  6  5  1  0
  6  7  1  0
  6  8  1  0
  8  9  1  0
  8 10  1  0
 10 11  1  0
  7 12  1  0
 10 12  1  0
 12 13  1  0
 13 14  1  0
 14 15  2  0
 15 16  1  0
 16 17  1  0
 17 18  1  0
 17 19  2  0
 19 20  1  0
 20 21  2  0
 13 22  1  0
 16 22  2  0
 21 22  1  0
 23 24  1  0
 24 25  2  0
 24 26  1  0
 26 27  1  0
 27 28  2  0
 27 29  1  0
 29 30  1  0
 30 31  1  0
 31 32  2  0
 32 33  1  0
 33 34  1  0
 33 35  2  0
 35 36  1  0
 35 37  1  0
 31 38  1  0
 37 38  2  0
 38 39  1  0
 23 40  1  0
 29 40  2  0
 39 40  1  0
 39 41  1  0
 41 42  1  0
 42 43  1  0
 42 44  1  0
 44 45  1  0
 44 46  1  0
 46 47  1  0
 46 48  1  0
 48 49  1  0
 50 49  1  6
 50 51  2  0
 50 52  1  0
  1 53  1  0
 50 53  1  0
  3 54  1  0
  5 55  1  0
  5 56  1  0
  6 57  1  1
  8 58  1  6
  9 59  1  0
 10 60  1  6
 11 61  1  0
 12 62  1  1
 14 63  1  0
 18 64  1  0
 18 65  1  0
 20 66  1  0
 23 67  1  0
 26 68  1  0
 30 69  1  0
 32 70  1  0
 34 71  1  0
 34 72  1  0
 34 73  1  0
 36 74  1  0
 36 75  1  0
 36 76  1  0
 37 77  1  0
 41 78  1  0
 41 79  1  0
 42 80  1  1
 43 81  1  0
 44 82  1  6
 45 83  1  0
 46 84  1  1
 47 85  1  0
 48 86  1  0
 48 87  1  0
 52 88  1  0
M  END
