1PMN_984_A_501
     RDKit          3D

 33 37  0  0  0  0  0  0  0  0999 V2000
   22.6677   35.6501   15.6110 N   0  0  0  0  0  0  0  0  0  0  0  0
   23.9379   35.9516   15.8674 C   0  0  0  0  0  0  0  0  0  0  0  0
   24.5682   35.9681   14.6774 N   0  0  0  0  0  0  0  0  0  0  0  0
   23.7030   35.6804   13.6906 C   0  0  0  0  0  0  0  0  0  0  0  0
   22.4882   35.4757   14.2719 C   0  0  0  0  0  0  0  0  0  0  0  0
   21.6143   35.5273   16.6214 C   0  0  0  0  0  0  0  0  0  0  0  0
   21.4460   34.0525   16.9392 C   0  0  0  0  0  0  0  0  0  0  0  0
   20.2859   33.8147   17.8770 C   0  0  0  0  0  0  0  0  0  0  0  0
   24.6249   36.2296   17.1532 C   0  0  1  0  0  0  0  0  0  0  0  0
   25.4587   35.0577   17.6183 C   0  0  0  0  0  0  0  0  0  0  0  0
   26.5573   35.6486   18.5052 C   0  0  0  0  0  0  0  0  0  0  0  0
   27.5971   36.2601   17.7083 N   0  0  0  0  0  0  0  0  0  0  0  0
   26.9835   36.8377   16.5488 C   0  0  0  0  0  0  0  0  0  0  0  0
   25.6143   37.3749   16.9676 C   0  0  0  0  0  0  0  0  0  0  0  0
   28.5762   35.2458   17.3849 C   0  0  0  0  0  0  0  0  0  0  0  0
   24.1069   35.6219   12.2887 C   0  0  0  0  0  0  0  0  0  0  0  0
   21.2571   35.1420   13.5666 C   0  0  0  0  0  0  0  0  0  0  0  0
   23.5392   36.4009   11.3037 C   0  0  0  0  0  0  0  0  0  0  0  0
   23.9527   36.3140    9.9865 C   0  0  0  0  0  0  0  0  0  0  0  0
   24.9646   35.4232    9.6368 C   0  0  0  0  0  0  0  0  0  0  0  0
   25.5442   34.6356   10.6101 C   0  0  0  0  0  0  0  0  0  0  0  0
   25.1223   34.7326   11.9168 C   0  0  0  0  0  0  0  0  0  0  0  0
   23.2111   37.3191    8.7574 Cl  0  0  0  0  0  0  0  0  0  0  0  0
   25.5123   35.2927    7.9614 Cl  0  0  0  0  0  0  0  0  0  0  0  0
   21.0459   33.9401   12.9296 C   0  0  0  0  0  0  0  0  0  0  0  0
   19.8192   33.7480   12.2927 C   0  0  0  0  0  0  0  0  0  0  0  0
   18.8664   34.7193   12.3033 N   0  0  0  0  0  0  0  0  0  0  0  0
   19.1014   35.8768   12.9310 C   0  0  0  0  0  0  0  0  0  0  0  0
   20.2802   36.0727   13.5481 N   0  0  0  0  0  0  0  0  0  0  0  0
   18.1276   36.9146   12.9663 N   0  0  0  0  0  0  0  0  0  0  0  0
   18.2710   38.1229   13.7492 C   0  0  2  0  0  0  0  0  0  0  0  0
   17.7514   37.9714   15.1564 C   0  0  0  0  0  0  0  0  0  0  0  0
   17.1319   38.9492   14.1508 C   0  0  0  0  0  0  0  0  0  0  0  0
  1  2  1  0
  2  3  2  0
  3  4  1  0
  1  5  1  0
  4  5  2  0
  1  6  1  0
  6  7  1  0
  7  8  1  0
  9  2  1  6
  9 10  1  0
 10 11  1  0
 11 12  1  0
 12 13  1  0
  9 14  1  0
 13 14  1  0
 12 15  1  0
  4 16  1  0
  5 17  1  0
 16 18  2  0
 18 19  1  0
 19 20  2  0
 20 21  1  0
 16 22  1  0
 21 22  2  0
 19 23  1  0
 20 24  1  0
 17 25  2  0
 25 26  1  0
 26 27  2  0
 27 28  1  0
 17 29  1  0
 28 29  2  0
 28 30  1  0
 31 30  1  6
 31 32  1  0
 31 33  1  0
 32 33  1  0
M  END
$$$$
