1PMN_984_A_501
     RDKit          3D

 33 37  0  0  0  0  0  0  0  0999 V2000
   22.6929   10.9126   31.1008 N   0  0  0  0  0  0  0  0  0  0  0  0
   22.8915   12.2277   31.0746 C   0  0  0  0  0  0  0  0  0  0  0  0
   21.9912   12.7612   31.9222 N   0  0  0  0  0  0  0  0  0  0  0  0
   21.2397   11.7918   32.4704 C   0  0  0  0  0  0  0  0  0  0  0  0
   21.6766   10.6087   31.9556 C   0  0  0  0  0  0  0  0  0  0  0  0
   23.4583    9.9330   30.3261 C   0  0  0  0  0  0  0  0  0  0  0  0
   23.0017   10.0254   28.8812 C   0  0  0  0  0  0  0  0  0  0  0  0
   24.0457    9.4846   27.9327 C   0  0  0  0  0  0  0  0  0  0  0  0
   23.8683   13.0428   30.3102 C   0  0  1  0  0  0  0  0  0  0  0  0
   23.3230   14.4099   29.9655 C   0  0  0  0  0  0  0  0  0  0  0  0
   24.5425   15.3198   29.8000 C   0  0  0  0  0  0  0  0  0  0  0  0
   25.0868   15.6997   31.0843 N   0  0  0  0  0  0  0  0  0  0  0  0
   24.9172   14.5943   31.9808 C   0  0  0  0  0  0  0  0  0  0  0  0
   25.0979   13.3091   31.1718 C   0  0  0  0  0  0  0  0  0  0  0  0
   24.4084   16.8977   31.5278 C   0  0  0  0  0  0  0  0  0  0  0  0
   20.1747   12.0751   33.4282 C   0  0  0  0  0  0  0  0  0  0  0  0
   21.1409    9.2933   32.2827 C   0  0  0  0  0  0  0  0  0  0  0  0
   20.0501   11.4246   34.6369 C   0  0  0  0  0  0  0  0  0  0  0  0
   19.0251   11.7249   35.5160 C   0  0  0  0  0  0  0  0  0  0  0  0
   18.0929   12.7045   35.1827 C   0  0  0  0  0  0  0  0  0  0  0  0
   18.2025   13.3657   33.9768 C   0  0  0  0  0  0  0  0  0  0  0  0
   19.2275   13.0563   33.1116 C   0  0  0  0  0  0  0  0  0  0  0  0
   18.8947   10.8801   37.0458 Cl  0  0  0  0  0  0  0  0  0  0  0  0
   16.7739   13.1079   36.2878 Cl  0  0  0  0  0  0  0  0  0  0  0  0
   19.8321    9.0729   32.6477 C   0  0  0  0  0  0  0  0  0  0  0  0
   19.4481    7.7620   32.9332 C   0  0  0  0  0  0  0  0  0  0  0  0
   20.3412    6.7386   32.8525 N   0  0  0  0  0  0  0  0  0  0  0  0
   21.6063    6.9847   32.4949 C   0  0  0  0  0  0  0  0  0  0  0  0
   21.9874    8.2442   32.2174 N   0  0  0  0  0  0  0  0  0  0  0  0
   22.5678    5.9395   32.3962 N   0  0  0  0  0  0  0  0  0  0  0  0
   23.9232    6.1377   31.9303 C   0  0  2  0  0  0  0  0  0  0  0  0
   24.0355    6.0952   30.4273 C   0  0  0  0  0  0  0  0  0  0  0  0
   24.7228    5.0669   31.3338 C   0  0  0  0  0  0  0  0  0  0  0  0
  1  2  1  0
  2  3  2  0
  3  4  1  0
  1  5  1  0
  4  5  2  0
  1  6  1  0
  6  7  1  0
  7  8  1  0
  9  2  1  1
  9 10  1  0
 10 11  1  0
 11 12  1  0
 12 13  1  0
  9 14  1  0
 13 14  1  0
 12 15  1  0
  4 16  1  0
  5 17  1  0
 16 18  2  0
 18 19  1  0
 19 20  2  0
 20 21  1  0
 16 22  1  0
 21 22  2  0
 19 23  1  0
 20 24  1  0
 17 25  2  0
 25 26  1  0
 26 27  2  0
 27 28  1  0
 17 29  1  0
 28 29  2  0
 28 30  1  0
 31 30  1  6
 31 32  1  0
 31 33  1  0
 32 33  1  0
M  END
$$$$
