1PMN_984_A_501
     RDKit          3D

 33 37  0  0  0  0  0  0  0  0999 V2000
   23.9709   33.5654   13.8338 N   0  0  0  0  0  0  0  0  0  0  0  0
   23.0765   33.2051   14.7505 C   0  0  0  0  0  0  0  0  0  0  0  0
   21.9653   33.9213   14.4939 N   0  0  0  0  0  0  0  0  0  0  0  0
   22.1631   34.7188   13.4309 C   0  0  0  0  0  0  0  0  0  0  0  0
   23.4372   34.5017   13.0005 C   0  0  0  0  0  0  0  0  0  0  0  0
   25.3306   33.0303   13.7327 C   0  0  0  0  0  0  0  0  0  0  0  0
   25.3927   32.1520   12.4960 C   0  0  0  0  0  0  0  0  0  0  0  0
   26.7625   31.5411   12.3163 C   0  0  0  0  0  0  0  0  0  0  0  0
   23.1745   32.2316   15.8665 C   0  0  1  0  0  0  0  0  0  0  0  0
   22.2263   32.5629   16.9961 C   0  0  0  0  0  0  0  0  0  0  0  0
   21.9454   31.2394   17.7115 C   0  0  0  0  0  0  0  0  0  0  0  0
   21.0062   30.4330   16.9647 N   0  0  0  0  0  0  0  0  0  0  0  0
   21.2436   30.6565   15.5690 C   0  0  0  0  0  0  0  0  0  0  0  0
   22.7486   30.8507   15.3798 C   0  0  0  0  0  0  0  0  0  0  0  0
   19.6683   30.7966   17.3769 C   0  0  0  0  0  0  0  0  0  0  0  0
   21.1290   35.6157   12.9228 C   0  0  0  0  0  0  0  0  0  0  0  0
   24.0704   35.1575   11.8634 C   0  0  0  0  0  0  0  0  0  0  0  0
   21.3983   36.8582   12.3910 C   0  0  0  0  0  0  0  0  0  0  0  0
   20.3874   37.6766   11.9200 C   0  0  0  0  0  0  0  0  0  0  0  0
   19.0644   37.2452   11.9794 C   0  0  0  0  0  0  0  0  0  0  0  0
   18.7765   36.0041   12.5086 C   0  0  0  0  0  0  0  0  0  0  0  0
   19.7928   35.2006   12.9739 C   0  0  0  0  0  0  0  0  0  0  0  0
   20.7630   39.2511   11.2487 Cl  0  0  0  0  0  0  0  0  0  0  0  0
   17.7537   38.2707   11.3841 Cl  0  0  0  0  0  0  0  0  0  0  0  0
   23.4462   35.3532   10.6522 C   0  0  0  0  0  0  0  0  0  0  0  0
   24.1663   35.9980    9.6457 C   0  0  0  0  0  0  0  0  0  0  0  0
   25.4431   36.4176    9.8588 N   0  0  0  0  0  0  0  0  0  0  0  0
   26.0225   36.2129   11.0468 C   0  0  0  0  0  0  0  0  0  0  0  0
   25.3378   35.5925   12.0240 N   0  0  0  0  0  0  0  0  0  0  0  0
   27.3549   36.6407   11.3078 N   0  0  0  0  0  0  0  0  0  0  0  0
   28.0647   36.3509   12.5349 C   0  0  2  0  0  0  0  0  0  0  0  0
   29.1667   37.3400   12.8190 C   0  0  0  0  0  0  0  0  0  0  0  0
   29.4410   35.8540   12.5582 C   0  0  0  0  0  0  0  0  0  0  0  0
  1  2  1  0
  2  3  2  0
  3  4  1  0
  1  5  1  0
  4  5  2  0
  1  6  1  0
  6  7  1  0
  7  8  1  0
  9  2  1  6
  9 10  1  0
 10 11  1  0
 11 12  1  0
 12 13  1  0
  9 14  1  0
 13 14  1  0
 12 15  1  0
  4 16  1  0
  5 17  1  0
 16 18  2  0
 18 19  1  0
 19 20  2  0
 20 21  1  0
 16 22  1  0
 21 22  2  0
 19 23  1  0
 20 24  1  0
 17 25  2  0
 25 26  1  0
 26 27  2  0
 27 28  1  0
 17 29  1  0
 28 29  2  0
 28 30  1  0
 31 30  1  6
 31 32  1  0
 31 33  1  0
 32 33  1  0
M  END
$$$$
