1PMN_984_A_501
     RDKit          3D

 33 37  0  0  0  0  0  0  0  0999 V2000
   22.9594   10.8413   30.5473 N   0  0  0  0  0  0  0  0  0  0  0  0
   22.9475    9.6185   31.0712 C   0  0  0  0  0  0  0  0  0  0  0  0
   22.0709    9.6554   32.0929 N   0  0  0  0  0  0  0  0  0  0  0  0
   21.5425   10.8855   32.2060 C   0  0  0  0  0  0  0  0  0  0  0  0
   22.1001   11.6510   31.2269 C   0  0  0  0  0  0  0  0  0  0  0  0
   23.7752   11.2560   29.4036 C   0  0  0  0  0  0  0  0  0  0  0  0
   25.2069   11.4068   29.8853 C   0  0  0  0  0  0  0  0  0  0  0  0
   26.1874   11.3616   28.7371 C   0  0  0  0  0  0  0  0  0  0  0  0
   23.6999    8.3968   30.6916 C   0  0  1  0  0  0  0  0  0  0  0  0
   24.1057    7.5803   31.8973 C   0  0  0  0  0  0  0  0  0  0  0  0
   24.2540    6.1405   31.3998 C   0  0  0  0  0  0  0  0  0  0  0  0
   22.9627    5.5137   31.2273 N   0  0  0  0  0  0  0  0  0  0  0  0
   22.0399    6.5170   30.7844 C   0  0  0  0  0  0  0  0  0  0  0  0
   22.8023    7.4774   29.8706 C   0  0  0  0  0  0  0  0  0  0  0  0
   22.5809    4.9085   32.4844 C   0  0  0  0  0  0  0  0  0  0  0  0
   20.5613   11.2238   33.2329 C   0  0  0  0  0  0  0  0  0  0  0  0
   21.8066   13.0573   30.9809 C   0  0  0  0  0  0  0  0  0  0  0  0
   20.2818   12.5176   33.6167 C   0  0  0  0  0  0  0  0  0  0  0  0
   19.3431   12.7938   34.5946 C   0  0  0  0  0  0  0  0  0  0  0  0
   18.6593   11.7490   35.2114 C   0  0  0  0  0  0  0  0  0  0  0  0
   18.9265   10.4476   34.8396 C   0  0  0  0  0  0  0  0  0  0  0  0
   19.8634   10.1877   33.8652 C   0  0  0  0  0  0  0  0  0  0  0  0
   19.0100   14.4502   35.0596 Cl  0  0  0  0  0  0  0  0  0  0  0  0
   17.4547   12.0741   36.4633 Cl  0  0  0  0  0  0  0  0  0  0  0  0
   20.5485   13.6042   31.0946 C   0  0  0  0  0  0  0  0  0  0  0  0
   20.4054   14.9673   30.8325 C   0  0  0  0  0  0  0  0  0  0  0  0
   21.4767   15.7269   30.4764 N   0  0  0  0  0  0  0  0  0  0  0  0
   22.6868   15.1664   30.3742 C   0  0  0  0  0  0  0  0  0  0  0  0
   22.8363   13.8535   30.6246 N   0  0  0  0  0  0  0  0  0  0  0  0
   23.8312   15.9296   30.0076 N   0  0  0  0  0  0  0  0  0  0  0  0
   25.1381   15.3543   29.7746 C   0  0  2  0  0  0  0  0  0  0  0  0
   26.2238   16.0299   30.5735 C   0  0  0  0  0  0  0  0  0  0  0  0
   26.1942   16.0526   29.0406 C   0  0  0  0  0  0  0  0  0  0  0  0
  1  2  1  0
  2  3  2  0
  3  4  1  0
  1  5  1  0
  4  5  2  0
  1  6  1  0
  6  7  1  0
  7  8  1  0
  9  2  1  1
  9 10  1  0
 10 11  1  0
 11 12  1  0
 12 13  1  0
  9 14  1  0
 13 14  1  0
 12 15  1  0
  4 16  1  0
  5 17  1  0
 16 18  2  0
 18 19  1  0
 19 20  2  0
 20 21  1  0
 16 22  1  0
 21 22  2  0
 19 23  1  0
 20 24  1  0
 17 25  2  0
 25 26  1  0
 26 27  2  0
 27 28  1  0
 17 29  1  0
 28 29  2  0
 28 30  1  0
 31 30  1  1
 31 32  1  0
 31 33  1  0
 32 33  1  0
M  END
$$$$
