1PMN_984_A_501
     RDKit          3D

 33 37  0  0  0  0  0  0  0  0999 V2000
   22.8259   10.6095   30.8775 N   0  0  0  0  0  0  0  0  0  0  0  0
   23.0794   11.9155   30.8731 C   0  0  0  0  0  0  0  0  0  0  0  0
   22.2829   12.4566   31.8146 N   0  0  0  0  0  0  0  0  0  0  0  0
   21.5413   11.5009   32.3993 C   0  0  0  0  0  0  0  0  0  0  0  0
   21.8777   10.3190   31.8115 C   0  0  0  0  0  0  0  0  0  0  0  0
   23.4748    9.6261   30.0073 C   0  0  0  0  0  0  0  0  0  0  0  0
   24.8675    9.3699   30.5545 C   0  0  0  0  0  0  0  0  0  0  0  0
   25.7950    8.8382   29.4873 C   0  0  0  0  0  0  0  0  0  0  0  0
   24.0190   12.7150   30.0481 C   0  0  1  0  0  0  0  0  0  0  0  0
   23.3622   13.2538   28.7977 C   0  0  0  0  0  0  0  0  0  0  0  0
   24.1505   14.5088   28.4157 C   0  0  0  0  0  0  0  0  0  0  0  0
   23.7928   15.6258   29.2610 N   0  0  0  0  0  0  0  0  0  0  0  0
   23.5117   15.1166   30.5710 C   0  0  0  0  0  0  0  0  0  0  0  0
   24.4634   13.9475   30.8282 C   0  0  0  0  0  0  0  0  0  0  0  0
   22.6638   16.3037   28.6627 C   0  0  0  0  0  0  0  0  0  0  0  0
   20.5798   11.7953   33.4580 C   0  0  0  0  0  0  0  0  0  0  0  0
   21.3157    9.0165   32.1460 C   0  0  0  0  0  0  0  0  0  0  0  0
   19.6516   12.8109   33.3774 C   0  0  0  0  0  0  0  0  0  0  0  0
   18.7577   13.0551   34.4045 C   0  0  0  0  0  0  0  0  0  0  0  0
   18.7873   12.2632   35.5498 C   0  0  0  0  0  0  0  0  0  0  0  0
   19.7098   11.2421   35.6474 C   0  0  0  0  0  0  0  0  0  0  0  0
   20.5935   11.0108   34.6176 C   0  0  0  0  0  0  0  0  0  0  0  0
   17.5890   14.3540   34.2710 Cl  0  0  0  0  0  0  0  0  0  0  0  0
   17.6561   12.5535   36.8765 Cl  0  0  0  0  0  0  0  0  0  0  0  0
   20.0384    8.8387   32.6274 C   0  0  0  0  0  0  0  0  0  0  0  0
   19.6236    7.5358   32.9063 C   0  0  0  0  0  0  0  0  0  0  0  0
   20.4574    6.4791   32.7076 N   0  0  0  0  0  0  0  0  0  0  0  0
   21.6931    6.6841   32.2386 C   0  0  0  0  0  0  0  0  0  0  0  0
   22.1035    7.9356   31.9664 N   0  0  0  0  0  0  0  0  0  0  0  0
   22.5923    5.6033   32.0148 N   0  0  0  0  0  0  0  0  0  0  0  0
   23.9256    5.7672   31.4773 C   0  0  2  0  0  0  0  0  0  0  0  0
   24.0232    5.3668   30.0270 C   0  0  0  0  0  0  0  0  0  0  0  0
   24.7892    4.6360   31.1363 C   0  0  0  0  0  0  0  0  0  0  0  0
  1  2  1  0
  2  3  2  0
  3  4  1  0
  1  5  1  0
  4  5  2  0
  1  6  1  0
  6  7  1  0
  7  8  1  0
  9  2  1  1
  9 10  1  0
 10 11  1  0
 11 12  1  0
 12 13  1  0
  9 14  1  0
 13 14  1  0
 12 15  1  0
  4 16  1  0
  5 17  1  0
 16 18  2  0
 18 19  1  0
 19 20  2  0
 20 21  1  0
 16 22  1  0
 21 22  2  0
 19 23  1  0
 20 24  1  0
 17 25  2  0
 25 26  1  0
 26 27  2  0
 27 28  1  0
 17 29  1  0
 28 29  2  0
 28 30  1  0
 31 30  1  1
 31 32  1  0
 31 33  1  0
 32 33  1  0
M  END
$$$$
