7RKW_5TV_A_502
     RDKit          3D

 38 40  0  0  0  0  0  0  0  0999 V2000
   19.9727   -8.7774   18.9505 C   0  0  0  0  0  0  0  0  0  0  0  0
   17.6588   -7.8673   17.0047 C   0  0  0  0  0  0  0  0  0  0  0  0
   23.3751  -11.0817   18.2658 F   0  0  0  0  0  0  0  0  0  0  0  0
   22.2686  -10.3308   18.4892 C   0  0  0  0  0  0  0  0  0  0  0  0
   21.3515  -10.7127   19.4719 C   0  0  0  0  0  0  0  0  0  0  0  0
   20.2111   -9.9382   19.7060 C   0  0  0  0  0  0  0  0  0  0  0  0
   20.9092   -8.3945   17.9713 C   0  0  0  0  0  0  0  0  0  0  0  0
   22.0484   -9.1713   17.7413 C   0  0  0  0  0  0  0  0  0  0  0  0
   18.7526   -7.9271   19.2434 C   0  0  2  0  0  0  0  0  0  0  0  0
   18.3082   -7.2368   18.0736 O   0  0  0  0  0  0  0  0  0  0  0  0
   18.3190   -8.5660   16.1869 O   0  0  0  0  0  0  0  0  0  0  0  0
   16.1984   -7.7064   16.8357 C   0  0  0  0  0  0  0  0  0  0  0  0
   15.6752   -6.5210   16.2887 C   0  0  0  0  0  0  0  0  0  0  0  0
   14.2946   -6.3664   16.1226 C   0  0  0  0  0  0  0  0  0  0  0  0
   13.6552   -4.8834   15.4376 Cl  0  0  0  0  0  0  0  0  0  0  0  0
   13.4246   -7.3930   16.5007 C   0  0  0  0  0  0  0  0  0  0  0  0
   13.9332   -8.5760   17.0445 C   0  0  0  0  0  0  0  0  0  0  0  0
   15.3135   -8.7340   17.2115 C   0  0  0  0  0  0  0  0  0  0  0  0
   12.8395   -9.8637   17.5172 Cl  0  0  0  0  0  0  0  0  0  0  0  0
   19.0380   -6.9154   20.3642 C   0  0  2  0  0  0  0  0  0  0  0  0
   18.7940   -5.5406   19.9277 N   0  0  0  0  0  0  0  0  0  0  0  0
   17.7192   -5.0791   19.2601 C   0  0  0  0  0  0  0  0  0  0  0  0
   17.8205   -3.7658   18.9672 N   0  0  0  0  0  0  0  0  0  0  0  0
   19.0155   -3.4011   19.4773 C   0  0  0  0  0  0  0  0  0  0  0  0
   19.6175   -4.4892   20.0679 C   0  0  0  0  0  0  0  0  0  0  0  0
   21.5251  -11.6071   20.0562 H   0  0  0  0  0  0  0  0  0  0  0  0
   19.5151  -10.2419   20.4782 H   0  0  0  0  0  0  0  0  0  0  0  0
   20.7639   -7.4915   17.3917 H   0  0  0  0  0  0  0  0  0  0  0  0
   22.7626   -8.8703   16.9858 H   0  0  0  0  0  0  0  0  0  0  0  0
   17.9250   -8.5831   19.5964 H   0  0  0  0  0  0  0  0  0  0  0  0
   16.3335   -5.7165   15.9871 H   0  0  0  0  0  0  0  0  0  0  0  0
   12.3564   -7.2721   16.3715 H   0  0  0  0  0  0  0  0  0  0  0  0
   15.6903   -9.6573   17.6340 H   0  0  0  0  0  0  0  0  0  0  0  0
   20.0915   -7.0209   20.7056 H   0  0  0  0  0  0  0  0  0  0  0  0
   18.3864   -7.1445   21.2356 H   0  0  0  0  0  0  0  0  0  0  0  0
   16.8692   -5.6897   18.9845 H   0  0  0  0  0  0  0  0  0  0  0  0
   19.4247   -2.4018   19.4165 H   0  0  0  0  0  0  0  0  0  0  0  0
   20.5869   -4.5145   20.5488 H   0  0  0  0  0  0  0  0  0  0  0  0
  3  4  1  0
  4  5  2  0
  5  6  1  0
  1  6  2  0
  1  7  1  0
  4  8  1  0
  7  8  2  0
  1  9  1  0
  9 10  1  0
  2 10  1  0
  2 11  2  0
  2 12  1  0
 12 13  2  0
 13 14  1  0
 14 15  1  0
 14 16  2  0
 16 17  1  0
 12 18  1  0
 17 18  2  0
 17 19  1  0
  9 20  1  0
 20 21  1  0
 21 22  1  0
 22 23  2  0
 23 24  1  0
 21 25  1  0
 24 25  2  0
  5 26  1  0
  6 27  1  0
  7 28  1  0
  8 29  1  0
  9 30  1  1
 13 31  1  0
 16 32  1  0
 18 33  1  0
 20 34  1  1
 20 35  1  0
 22 36  1  0
 24 37  1  0
 25 38  1  0
M  END
