
     RDKit          3D

 44 48  0  0  0  0  0  0  0  0999 V2000
   10.3408  -16.0758   -8.1671 P   0  0  2  0  0  5  0  0  0  0  0  0
    9.1101  -17.0750   -8.3590 O   0  0  0  0  0  0  0  0  0  0  0  0
   11.6783  -16.7326   -8.1086 O   0  0  0  0  0  0  0  0  0  0  0  0
    9.8913  -15.2262   -6.8853 O   0  0  0  0  0  0  0  0  0  0  0  0
   10.6513  -15.3677   -5.6960 C   0  0  0  0  0  0  0  0  0  0  0  0
   10.7186  -14.0332   -4.9403 C   0  0  1  0  0  0  0  0  0  0  0  0
   11.9352  -14.0259   -4.1595 O   0  0  0  0  0  0  0  0  0  0  0  0
   10.7755  -12.8089   -5.8555 C   0  0  1  0  0  0  0  0  0  0  0  0
   10.1289  -11.6992   -5.2192 O   0  0  0  0  0  0  0  0  0  0  0  0
   12.2621  -12.5160   -5.9551 C   0  0  1  0  0  0  0  0  0  0  0  0
   12.4862  -11.1408   -6.2896 O   0  0  0  0  0  0  0  0  0  0  0  0
   12.7458  -12.8984   -4.5504 C   0  0  2  0  0  0  0  0  0  0  0  0
   14.1647  -13.2351   -4.5119 N   0  0  0  0  0  0  0  0  0  0  0  0
   15.0231  -13.0979   -5.5804 C   0  0  0  0  0  0  0  0  0  0  0  0
   16.2488  -13.4944   -5.2979 N   0  0  0  0  0  0  0  0  0  0  0  0
   16.1943  -13.8311   -3.9600 C   0  0  0  0  0  0  0  0  0  0  0  0
   17.1853  -14.2800   -3.0700 C   0  0  0  0  0  0  0  0  0  0  0  0
   18.5156  -14.4697   -3.4472 N   0  0  0  0  0  0  0  0  0  0  0  0
   16.8462  -14.5121   -1.7862 N   0  0  0  0  0  0  0  0  0  0  0  0
   15.5560  -14.3172   -1.4233 C   0  0  0  0  0  0  0  0  0  0  0  0
   14.5317  -13.8898   -2.1823 N   0  0  0  0  0  0  0  0  0  0  0  0
   14.9166  -13.6644   -3.4497 C   0  0  0  0  0  0  0  0  0  0  0  0
   10.1525  -15.0595   -9.3722 O   0  0  0  0  0  0  0  0  0  0  0  0
   11.1374  -13.8273   -9.5864 P   0  0  2  0  0  5  0  0  0  0  0  0
   12.5291  -14.0194   -9.0900 O   0  0  0  0  0  0  0  0  0  0  0  0
   10.3870  -12.5530   -9.0004 O   0  0  0  0  0  0  0  0  0  0  0  0
   11.0432  -13.5908  -11.1783 O   0  0  0  0  0  0  0  0  0  0  0  0
   10.3608  -14.5622  -11.9552 C   0  0  0  0  0  0  0  0  0  0  0  0
    8.9133  -14.1235  -12.2070 C   0  0  1  0  0  0  0  0  0  0  0  0
    8.6915  -12.6039  -12.0016 C   0  0  0  0  0  0  0  0  0  0  0  0
    8.5000  -14.3625  -13.6630 C   0  0  1  0  0  0  0  0  0  0  0  0
    7.0734  -14.3273  -13.7640 O   0  0  0  0  0  0  0  0  0  0  0  0
    9.0186  -13.1143  -14.3852 C   0  0  1  0  0  0  0  0  0  0  0  0
    8.3900  -12.9050  -15.6461 O   0  0  0  0  0  0  0  0  0  0  0  0
    8.6441  -11.9968  -13.4052 C   0  0  0  0  0  0  0  0  0  0  0  0
    9.5383  -10.8092  -13.5716 N   0  0  0  0  0  4  0  0  0  0  0  0
    9.9416  -10.0617  -12.5064 C   0  0  0  0  0  0  0  0  0  0  0  0
   10.7595   -8.9423  -12.6830 C   0  0  0  0  0  0  0  0  0  0  0  0
   11.1193   -8.1564  -11.4757 C   0  0  0  0  0  0  0  0  0  0  0  0
   11.5340   -7.0060  -11.5849 O   0  0  0  0  0  0  0  0  0  0  0  0
   11.0202   -8.7591  -10.2588 N   0  0  0  0  0  0  0  0  0  0  0  0
   11.2125   -8.6336  -13.9649 C   0  0  0  0  0  0  0  0  0  0  0  0
   10.8205   -9.4234  -15.0411 C   0  0  0  0  0  0  0  0  0  0  0  0
    9.9799  -10.5074  -14.8209 C   0  0  0  0  0  0  0  0  0  0  0  0
  1  2  1  6
  1  3  2  0
  1  4  1  0
  4  5  1  0
  6  5  1  6
  6  7  1  0
  6  8  1  0
  8  9  1  1
  8 10  1  0
 10 11  1  1
 10 12  1  0
  7 12  1  0
 12 13  1  6
 13 14  4  0
 14 15  4  0
 15 16  4  0
 16 17  4  0
 17 18  1  0
 17 19  4  0
 19 20  4  0
 20 21  4  0
 21 22  4  0
 13 22  4  0
 16 22  4  0
  1 23  1  0
 24 23  1  0
 24 25  2  0
 24 26  1  1
 24 27  1  0
 27 28  1  0
 29 28  1  6
 29 30  1  0
 29 31  1  0
 31 32  1  1
 31 33  1  0
 33 34  1  6
 33 35  1  0
 30 35  1  0
 35 36  1  0
 36 37  4  0
 37 38  4  0
 38 39  1  0
 39 40  2  0
 39 41  1  0
 38 42  4  0
 42 43  4  0
 36 44  4  0
 43 44  4  0
M  CHG  1  36   1
M  END
