1V4S_MRK_A_501
     RDKit          3D

 23 25  0  0  0  0  0  0  0  0999 V2000
   19.3304   -2.7124   67.1682 S   0  0  0  0  0  0  0  0  0  0  0  0
   18.1274   -4.1195   67.2171 C   0  0  0  0  0  0  0  0  0  0  0  0
   17.6739   -4.2205   65.9631 C   0  0  0  0  0  0  0  0  0  0  0  0
   18.1864   -3.3454   65.1260 N   0  0  0  0  0  0  0  0  0  0  0  0
   18.9592   -2.5022   65.2745 C   0  0  0  0  0  0  0  0  0  0  0  0
   19.6976   -1.4308   64.6289 N   0  0  0  0  0  0  0  0  0  0  0  0
   20.6469   -0.6648   65.3223 C   0  0  0  0  0  0  0  0  0  0  0  0
   20.9787   -0.9826   66.4999 O   0  0  0  0  0  0  0  0  0  0  0  0
   22.1259    1.2660   65.5501 C   0  0  0  0  0  0  0  0  0  0  0  0
   21.2872    0.5038   64.7482 C   0  0  0  0  0  0  0  0  0  0  0  0
   21.1141    0.9082   63.4471 C   0  0  0  0  0  0  0  0  0  0  0  0
   21.7440    2.0307   62.9371 C   0  0  0  0  0  0  0  0  0  0  0  0
   22.5797    2.7948   63.7268 C   0  0  0  0  0  0  0  0  0  0  0  0
   23.2148    3.9031   63.2601 F   0  0  0  0  0  0  0  0  0  0  0  0
   22.7550    2.3874   65.0401 C   0  0  0  0  0  0  0  0  0  0  0  0
   21.5169    2.5571   61.2384 S   0  0  0  0  0  0  0  0  0  0  0  0
   20.4158    1.1468   59.0681 N   0  0  0  0  0  0  0  0  0  0  0  0
   20.9453    1.1292   60.2973 C   0  0  0  0  0  0  0  0  0  0  0  0
   20.9597   -0.1567   60.6729 N   0  0  0  0  0  0  0  0  0  0  0  0
   20.4528   -0.9447   59.7108 C   0  0  0  0  0  0  0  0  0  0  0  0
   20.0975   -0.1084   58.6665 C   0  0  0  0  0  0  0  0  0  0  0  0
   20.1899    2.3146   58.2348 C   0  0  0  0  0  0  0  0  0  0  0  0
   22.3735    0.9300   66.9207 N   0  0  0  0  0  0  0  0  0  0  0  0
  1  2  1  0
  2  3  2  0
  3  4  1  0
  1  5  1  0
  4  5  2  0
  5  6  1  0
  6  7  1  0
  7  8  2  0
  7 10  1  0
  9 10  2  0
 10 11  1  0
 11 12  2  0
 12 13  1  0
 13 14  1  0
  9 15  1  0
 13 15  2  0
 12 16  1  0
 16 18  1  0
 17 18  1  0
 18 19  2  0
 19 20  1  0
 17 21  1  0
 20 21  2  0
 17 22  1  0
  9 23  1  0
M  END
$$$$
