1V4S_MRK_A_501
     RDKit          3D

 23 25  0  0  0  0  0  0  0  0999 V2000
   20.1377    0.4977   59.4477 S   0  0  0  0  0  0  0  0  0  0  0  0
   19.1283    1.1982   58.0620 C   0  0  0  0  0  0  0  0  0  0  0  0
   18.9654    2.4868   58.3800 C   0  0  0  0  0  0  0  0  0  0  0  0
   19.5352    2.8458   59.5095 N   0  0  0  0  0  0  0  0  0  0  0  0
   20.1528    2.2509   60.2808 C   0  0  0  0  0  0  0  0  0  0  0  0
   20.8777    2.3167   61.5379 N   0  0  0  0  0  0  0  0  0  0  0  0
   21.6791    1.2557   61.9857 C   0  0  0  0  0  0  0  0  0  0  0  0
   21.7675    0.1966   61.3012 O   0  0  0  0  0  0  0  0  0  0  0  0
   23.2254    0.2195   63.5677 C   0  0  0  0  0  0  0  0  0  0  0  0
   22.4331    1.3065   63.2243 C   0  0  0  0  0  0  0  0  0  0  0  0
   22.4123    2.3741   64.0882 C   0  0  0  0  0  0  0  0  0  0  0  0
   23.1471    2.3835   65.2616 C   0  0  0  0  0  0  0  0  0  0  0  0
   23.9378    1.3072   65.6114 C   0  0  0  0  0  0  0  0  0  0  0  0
   24.6727    1.2815   66.7554 F   0  0  0  0  0  0  0  0  0  0  0  0
   23.9594    0.2294   64.7401 C   0  0  0  0  0  0  0  0  0  0  0  0
   23.1188    3.7779   66.3881 S   0  0  0  0  0  0  0  0  0  0  0  0
   20.8985    5.0287   67.5786 N   0  0  0  0  0  0  0  0  0  0  0  0
   21.3995    4.2841   66.5855 C   0  0  0  0  0  0  0  0  0  0  0  0
   20.3659    3.9998   65.7819 N   0  0  0  0  0  0  0  0  0  0  0  0
   19.2307    4.5470   66.2460 C   0  0  0  0  0  0  0  0  0  0  0  0
   19.5662    5.2160   67.4105 C   0  0  0  0  0  0  0  0  0  0  0  0
   21.6299    5.5847   68.7032 C   0  0  0  0  0  0  0  0  0  0  0  0
   23.3167   -0.9433   62.7356 N   0  0  0  0  0  0  0  0  0  0  0  0
  1  2  1  0
  2  3  2  0
  3  4  1  0
  1  5  1  0
  4  5  2  0
  5  6  1  0
  6  7  1  0
  7  8  2  0
  7 10  1  0
  9 10  2  0
 10 11  1  0
 11 12  2  0
 12 13  1  0
 13 14  1  0
  9 15  1  0
 13 15  2  0
 12 16  1  0
 16 18  1  0
 17 18  1  0
 18 19  2  0
 19 20  1  0
 17 21  1  0
 20 21  2  0
 17 22  1  0
  9 23  1  0
M  END
$$$$
