1V4S_MRK_A_501
     RDKit          3D

 23 25  0  0  0  0  0  0  0  0999 V2000
   39.6183   13.4880   60.6600 S   0  0  0  0  0  0  0  0  0  0  0  0
   39.7732   11.8215   59.8673 C   0  0  0  0  0  0  0  0  0  0  0  0
   40.5495   11.1212   60.7010 C   0  0  0  0  0  0  0  0  0  0  0  0
   40.9442   11.7849   61.7653 N   0  0  0  0  0  0  0  0  0  0  0  0
   40.7432   12.8657   62.1144 C   0  0  0  0  0  0  0  0  0  0  0  0
   40.9956   13.8537   63.1489 N   0  0  0  0  0  0  0  0  0  0  0  0
   40.2698   15.0524   63.2194 C   0  0  0  0  0  0  0  0  0  0  0  0
   39.3930   15.3136   62.3471 O   0  0  0  0  0  0  0  0  0  0  0  0
   39.5893   17.1019   64.3612 C   0  0  0  0  0  0  0  0  0  0  0  0
   40.4743   16.0366   64.2658 C   0  0  0  0  0  0  0  0  0  0  0  0
   41.4996   15.9801   65.1779 C   0  0  0  0  0  0  0  0  0  0  0  0
   41.6602   16.9403   66.1623 C   0  0  0  0  0  0  0  0  0  0  0  0
   40.7852   18.0032   66.2651 C   0  0  0  0  0  0  0  0  0  0  0  0
   40.9119   18.9646   67.2187 F   0  0  0  0  0  0  0  0  0  0  0  0
   39.7501   18.0610   65.3450 C   0  0  0  0  0  0  0  0  0  0  0  0
   42.9991   16.8651   67.3522 S   0  0  0  0  0  0  0  0  0  0  0  0
   45.6648   16.0293   67.0255 N   0  0  0  0  0  0  0  0  0  0  0  0
   44.4701   16.2911   66.4817 C   0  0  0  0  0  0  0  0  0  0  0  0
   44.5992   16.0393   65.1722 N   0  0  0  0  0  0  0  0  0  0  0  0
   45.8437   15.6265   64.8819 C   0  0  0  0  0  0  0  0  0  0  0  0
   46.5418   15.6170   66.0773 C   0  0  0  0  0  0  0  0  0  0  0  0
   46.0287   16.1514   68.4261 C   0  0  0  0  0  0  0  0  0  0  0  0
   38.4867   17.2530   63.4589 N   0  0  0  0  0  0  0  0  0  0  0  0
  1  2  1  0
  2  3  2  0
  3  4  1  0
  1  5  1  0
  4  5  2  0
  5  6  1  0
  6  7  1  0
  7  8  2  0
  7 10  1  0
  9 10  2  0
 10 11  1  0
 11 12  2  0
 12 13  1  0
 13 14  1  0
  9 15  1  0
 13 15  2  0
 12 16  1  0
 16 18  1  0
 17 18  1  0
 18 19  2  0
 19 20  1  0
 17 21  1  0
 20 21  2  0
 17 22  1  0
  9 23  1  0
M  END
$$$$
