7ULC_56B_A_401
     RDKit          3D

 33 36  0  0  0  0  0  0  0  0999 V2000
   38.5508    6.4890   42.5057 N   0  0  0  0  0  0  0  0  0  0  0  0
   36.3311    7.4737   42.0249 C   0  0  1  0  0  0  0  0  0  0  0  0
   36.3136    7.3111   40.6419 O   0  0  0  0  0  0  0  0  0  0  0  0
   36.2690    7.7352   46.2361 P   0  0  1  0  0  0  0  0  0  0  0  0
   37.7321    7.6508   42.5722 C   0  0  1  0  0  0  0  0  0  0  0  0
   41.2438    2.9232   43.7193 N   0  0  0  0  0  0  0  0  0  0  0  0
   41.2653    0.4560   46.2632 O   0  0  0  0  0  0  0  0  0  0  0  0
   38.5999    5.4457   43.3475 C   0  0  0  0  0  0  0  0  0  0  0  0
   39.8051    6.9873   40.4096 N   0  0  0  0  0  0  0  0  0  0  0  0
   41.6550    2.5957   47.9096 O   0  0  0  0  0  0  0  0  0  0  0  0
   39.5509    4.5182   42.9072 C   0  0  0  0  0  0  0  0  0  0  0  0
   41.0419    7.3676   38.4198 N   0  0  0  0  0  0  0  0  0  0  0  0
   41.5882    3.5605   41.0340 O   0  0  0  0  0  0  0  0  0  0  0  0
   39.9020    3.2646   43.6084 C   0  0  0  0  0  0  0  0  0  0  0  0
   41.3452    5.3656   39.7743 N   0  0  0  0  0  0  0  0  0  0  0  0
   37.4366    8.1020   43.8538 O   0  0  0  0  0  0  0  0  0  0  0  0
   41.7612    1.8340   44.4051 C   0  0  2  0  0  0  0  0  0  0  0  0
   36.5582    9.3512   45.8703 O   0  0  0  0  0  0  0  0  0  0  0  0
   41.0317    1.7236   45.7620 C   0  0  2  0  0  0  0  0  0  0  0  0
   37.4983    7.1173   47.2537 O   0  0  0  0  0  0  0  0  0  0  0  0
   41.7952    2.8066   46.5320 C   0  0  2  0  0  0  0  0  0  0  0  0
   43.1816    2.5675   46.1030 C   0  0  0  0  0  0  0  0  0  0  0  0
   34.9793    7.6195   46.9947 O   0  0  0  0  0  0  0  0  0  0  0  0
   43.1568    2.0080   44.8816 C   0  0  0  0  0  0  0  0  0  0  0  0
   35.9918    9.6547   41.2921 O   0  0  0  0  0  0  0  0  0  0  0  0
   40.0558    5.0789   41.7558 C   0  0  0  0  0  0  0  0  0  0  0  0
   39.4550    6.2767   41.5035 C   0  0  0  0  0  0  0  0  0  0  0  0
   40.7441    6.5443   39.5423 C   0  0  0  0  0  0  0  0  0  0  0  0
   41.0096    4.6388   40.8639 C   0  0  0  0  0  0  0  0  0  0  0  0
   36.6677    9.2311   43.5534 C   0  0  2  0  0  0  0  0  0  0  0  0
   35.8835    9.7582   44.7104 C   0  0  0  0  0  0  0  0  0  0  0  0
   35.7539    8.8412   42.4250 C   0  0  2  0  0  0  0  0  0  0  0  0
   36.3060    6.7500   44.8524 O   0  0  0  0  0  0  0  0  0  0  0  0
  2  3  1  6
  5  1  1  1
  2  5  1  0
  1  8  1  0
  8 11  2  0
 11 14  1  0
  6 14  1  0
  5 16  1  0
 17  6  1  1
  4 18  1  0
 17 19  1  0
 19  7  1  1
  4 20  1  1
 21 10  1  1
 19 21  1  0
 21 22  1  0
  4 23  2  0
 22 24  2  0
 17 24  1  0
 11 26  1  0
  9 27  1  0
 26 27  2  0
  1 27  1  0
 12 28  1  0
 15 28  1  0
  9 28  2  0
 15 29  1  0
 13 29  2  0
 26 29  1  0
 16 30  1  0
 30 31  1  1
 18 31  1  0
 32 25  1  6
 30 32  1  0
  2 32  1  0
  4 33  1  0
M  END
$$$$
