7TXP_0FX_A_301
     RDKit          3D

 35 37  0  0  0  0  0  0  0  0999 V2000
  -12.1973  -16.1702   28.4260 O   0  0  0  0  0  0  0  0  0  0  0  0
  -10.9504  -15.7003   29.0996 P   0  0  1  0  0  0  0  0  0  0  0  0
   -9.7521  -15.5324   28.2221 O   0  0  0  0  0  0  0  0  0  0  0  0
  -11.3160  -14.3715   29.9282 O   0  0  0  0  0  0  0  0  0  0  0  0
  -12.4352  -13.6298   29.5807 C   0  0  2  0  0  0  0  0  0  0  0  0
  -13.6511  -14.3095   30.1370 C   0  0  2  0  0  0  0  0  0  0  0  0
  -13.5801  -14.4602   31.5590 O   0  0  0  0  0  0  0  0  0  0  0  0
  -13.8402  -15.6819   29.5047 C   0  0  1  0  0  0  0  0  0  0  0  0
  -15.0482  -16.3013   29.9359 O   0  0  0  0  0  0  0  0  0  0  0  0
  -13.8471  -15.5569   27.9887 C   0  0  2  0  0  0  0  0  0  0  0  0
  -13.9159  -16.9042   27.4116 N   0  0  0  0  0  0  0  0  0  0  0  0
  -12.6245  -14.7902   27.4699 C   0  0  1  0  0  0  0  0  0  0  0  0
  -12.6808  -14.4119   25.9991 C   0  0  0  0  0  0  0  0  0  0  0  0
  -12.5063  -13.5415   28.1679 O   0  0  0  0  0  0  0  0  0  0  0  0
  -10.5535  -16.7161   30.2696 O   0  0  0  0  0  0  0  0  0  0  0  0
  -11.3019  -17.9863   30.8813 P   0  0  2  0  0  0  0  0  0  0  0  0
  -12.6479  -17.5741   31.3639 O   0  0  0  0  0  0  0  0  0  0  0  0
  -10.3931  -18.6512   31.8640 O   0  0  0  0  0  0  0  0  0  0  0  0
  -11.5637  -18.9254   29.6453 O   0  0  0  0  0  0  0  0  0  0  0  0
  -10.5318  -19.6654   28.9964 C   0  0  0  0  0  0  0  0  0  0  0  0
  -11.2479  -20.7130   28.1880 C   0  0  1  0  0  0  0  0  0  0  0  0
  -10.4765  -20.9373   26.9831 O   0  0  0  0  0  0  0  0  0  0  0  0
  -11.3742  -22.0399   28.9457 C   0  0  1  0  0  0  0  0  0  0  0  0
  -12.6549  -22.6448   28.8417 O   0  0  0  0  0  0  0  0  0  0  0  0
  -10.3327  -22.8999   28.2467 C   0  0  0  0  0  0  0  0  0  0  0  0
  -10.2974  -22.3422   26.8331 C   0  0  2  0  0  0  0  0  0  0  0  0
   -9.0312  -22.5301   26.1024 N   0  0  0  0  0  0  0  0  0  0  0  0
   -7.8969  -21.8939   26.5465 C   0  0  0  0  0  0  0  0  0  0  0  0
   -6.6924  -22.0493   25.9631 C   0  0  0  0  0  0  0  0  0  0  0  0
   -5.4727  -21.3347   26.4378 C   0  0  0  0  0  0  0  0  0  0  0  0
   -9.0076  -23.3561   25.0043 C   0  0  0  0  0  0  0  0  0  0  0  0
   -9.9894  -23.9346   24.5865 O   0  0  0  0  0  0  0  0  0  0  0  0
   -7.7749  -23.5220   24.4322 N   0  0  0  0  0  0  0  0  0  0  0  0
   -6.6035  -22.9046   24.7991 C   0  0  0  0  0  0  0  0  0  0  0  0
   -5.5763  -23.1530   24.1431 O   0  0  0  0  0  0  0  0  0  0  0  0
  2  1  1  6
  2  3  2  0
  2  4  1  0
  5  4  1  6
  5  6  1  0
  6  7  1  1
  6  8  1  0
  8  9  1  1
  8 10  1  0
 10 11  1  6
 10 12  1  0
 12 13  1  6
 12 14  1  0
  5 14  1  0
  2 15  1  0
 15 16  1  0
 16 17  1  1
 16 18  2  0
 16 19  1  0
 19 20  1  0
 21 20  1  1
 21 22  1  0
 21 23  1  0
 23 24  1  6
 23 25  1  0
 25 26  1  0
 22 26  1  0
 26 27  1  1
 27 28  1  0
 28 29  2  0
 29 30  1  0
 27 31  1  0
 31 32  2  0
 31 33  1  0
 33 34  1  0
 29 34  1  0
 34 35  2  0
M  END
