7WCF_ACP_A_401
     RDKit          3D

 31 33  0  0  0  0  0  0  0  0999 V2000
    2.7131  -17.4402  -24.1788 P   0  0  1  0  0  0  0  0  0  0  0  0
    1.8084  -17.6790  -25.3630 O   0  0  0  0  0  0  0  0  0  0  0  0
    3.9557  -16.4045  -24.6805 O   0  0  0  0  0  0  0  0  0  0  0  0
    1.8352  -16.6264  -22.9830 O   0  0  0  0  0  0  0  0  0  0  0  0
    4.7940  -19.4942  -24.4612 P   0  0  2  0  0  0  0  0  0  0  0  0
    5.5960  -18.2594  -24.7656 O   0  0  0  0  0  0  0  0  0  0  0  0
    4.3038  -20.1996  -25.9157 O   0  0  0  0  0  0  0  0  0  0  0  0
    3.3380  -18.9824  -23.4846 C   0  0  0  0  0  0  0  0  0  0  0  0
    4.8035  -20.7720  -22.0510 P   0  0  2  0  0  0  0  0  0  0  0  0
    3.3131  -20.7053  -22.2869 O   0  0  0  0  0  0  0  0  0  0  0  0
    5.2177  -19.6123  -20.9067 O   0  0  0  0  0  0  0  0  0  0  0  0
    5.6609  -20.5748  -23.4949 O   0  0  0  0  0  0  0  0  0  0  0  0
    5.1942  -22.2818  -21.4173 O   0  0  0  0  0  0  0  0  0  0  0  0
    6.0144  -23.0187  -22.2782 C   0  0  0  0  0  0  0  0  0  0  0  0
    7.2064  -23.4460  -21.4500 C   0  0  1  0  0  0  0  0  0  0  0  0
    8.3817  -22.8168  -21.8998 O   0  0  0  0  0  0  0  0  0  0  0  0
    7.1378  -22.9788  -20.0222 C   0  0  1  0  0  0  0  0  0  0  0  0
    6.3618  -23.8047  -19.2151 O   0  0  0  0  0  0  0  0  0  0  0  0
    8.6003  -23.0981  -19.5939 C   0  0  1  0  0  0  0  0  0  0  0  0
    8.8310  -24.3106  -18.9433 O   0  0  0  0  0  0  0  0  0  0  0  0
    9.2897  -23.1494  -20.9275 C   0  0  2  0  0  0  0  0  0  0  0  0
   10.4514  -22.2513  -20.9950 N   0  0  0  0  0  0  0  0  0  0  0  0
   10.4365  -20.9695  -21.4410 C   0  0  0  0  0  0  0  0  0  0  0  0
   11.6769  -20.4512  -21.3609 N   0  0  0  0  0  0  0  0  0  0  0  0
   12.4809  -21.3882  -20.8692 C   0  0  0  0  0  0  0  0  0  0  0  0
   13.8275  -21.4521  -20.5658 C   0  0  0  0  0  0  0  0  0  0  0  0
   14.6573  -20.3176  -20.7843 N   0  0  0  0  0  0  0  0  0  0  0  0
   14.3356  -22.5990  -20.0634 N   0  0  0  0  0  0  0  0  0  0  0  0
   13.5634  -23.6901  -19.8478 C   0  0  0  0  0  0  0  0  0  0  0  0
   12.2317  -23.6478  -20.1406 N   0  0  0  0  0  0  0  0  0  0  0  0
   11.7221  -22.5177  -20.6375 C   0  0  0  0  0  0  0  0  0  0  0  0
  1  2  2  0
  1  3  1  6
  1  4  1  0
  5  6  2  0
  5  7  1  6
  1  8  1  0
  5  8  1  0
  9 10  2  0
  9 11  1  1
  5 12  1  0
  9 12  1  0
  9 13  1  0
 13 14  1  0
 15 14  1  6
 15 16  1  0
 15 17  1  0
 17 18  1  1
 17 19  1  0
 19 20  1  6
 16 21  1  0
 19 21  1  0
 21 22  1  1
 22 23  1  0
 23 24  2  0
 24 25  1  0
 25 26  2  0
 26 27  1  0
 26 28  1  0
 28 29  2  0
 29 30  1  0
 22 31  1  0
 25 31  1  0
 30 31  2  0
M  END
$$$$
