7CD9_FVR_A_501
     RDKit          3D

 62 66  0  0  0  0  0  0  0  0999 V2000
   15.2097   15.0247   19.3765 C   0  0  2  0  0  0  0  0  0  0  0  0
   16.7288   15.1520   19.5964 C   0  0  1  0  0  0  0  0  0  0  0  0
   17.2896   13.8419   20.1977 C   0  0  1  0  0  0  0  0  0  0  0  0
   18.6079   14.8031   17.9131 C   0  0  0  0  0  0  0  0  0  0  0  0
   19.7703   13.3572   16.3943 C   0  0  0  0  0  0  0  0  0  0  0  0
   20.9261   13.5820   17.1280 C   0  0  0  0  0  0  0  0  0  0  0  0
   20.8933   14.3833   18.2162 C   0  0  0  0  0  0  0  0  0  0  0  0
   22.1563   14.4382   18.7553 C   0  0  0  0  0  0  0  0  0  0  0  0
   18.9903    9.0388   19.7465 C   0  0  0  0  0  0  0  0  0  0  0  0
   18.0463    9.2401   20.7591 C   0  0  0  0  0  0  0  0  0  0  0  0
   17.2408   10.3822   20.7657 C   0  0  0  0  0  0  0  0  0  0  0  0
   17.3669   11.3488   19.7542 C   0  0  0  0  0  0  0  0  0  0  0  0
   18.3208   11.1492   18.7388 C   0  0  0  0  0  0  0  0  0  0  0  0
   19.1259   10.0074   18.7348 C   0  0  0  0  0  0  0  0  0  0  0  0
   16.4890   12.5872   19.7686 C   0  0  2  0  0  0  0  0  0  0  0  0
   15.7933   12.7948   18.4070 C   0  0  2  0  0  0  0  0  0  0  0  0
   22.9221   13.6247   17.9221 C   0  0  0  0  0  0  0  0  0  0  0  0
   17.3443   13.7107   16.0803 C   0  0  1  0  0  0  0  0  0  0  0  0
   13.4693   13.5298   18.5846 C   0  0  2  0  0  0  0  0  0  0  0  0
   20.0365    7.0177   18.6741 C   0  0  1  0  0  0  0  0  0  0  0  0
   18.7537    6.5396   18.0469 C   0  0  0  0  0  0  0  0  0  0  0  0
   17.9484    5.6045   18.7181 C   0  0  0  0  0  0  0  0  0  0  0  0
   16.7607    5.1510   18.1361 C   0  0  0  0  0  0  0  0  0  0  0  0
   16.3728    5.6213   16.8787 C   0  0  0  0  0  0  0  0  0  0  0  0
   17.1739    6.5432   16.1996 C   0  0  0  0  0  0  0  0  0  0  0  0
   18.3630    6.9987   16.7777 C   0  0  0  0  0  0  0  0  0  0  0  0
   14.8659   13.9560   18.4058 N   0  0  0  0  0  0  0  0  0  0  0  0
   17.4119   15.4848   18.3375 N   0  0  0  0  0  0  0  0  0  0  0  0
   18.5996   13.9602   16.8082 N   0  0  0  0  0  0  0  0  0  0  0  0
   19.7638   15.0005   18.6203 N   0  0  0  0  0  0  0  0  0  0  0  0
   22.1649   13.1026   16.9268 N   0  0  0  0  0  0  0  0  0  0  0  0
   19.8068   12.6141   15.3753 O   0  0  0  0  0  0  0  0  0  0  0  0
   19.7693    7.8710   19.7876 O   0  0  0  0  0  0  0  0  0  0  0  0
   14.8184   15.9938   18.9978 H   0  0  0  0  0  0  0  0  0  0  0  0
   14.7295   14.8374   20.3651 H   0  0  0  0  0  0  0  0  0  0  0  0
   16.8972   15.9804   20.3200 H   0  0  0  0  0  0  0  0  0  0  0  0
   18.3650   13.7426   19.9384 H   0  0  0  0  0  0  0  0  0  0  0  0
   17.2508   13.9130   21.3072 H   0  0  0  0  0  0  0  0  0  0  0  0
   22.4838   14.9903   19.6260 H   0  0  0  0  0  0  0  0  0  0  0  0
   17.9342    8.5041   21.5451 H   0  0  0  0  0  0  0  0  0  0  0  0
   16.5179   10.5093   21.5620 H   0  0  0  0  0  0  0  0  0  0  0  0
   18.4488   11.8817   17.9517 H   0  0  0  0  0  0  0  0  0  0  0  0
   19.8528    9.8941   17.9439 H   0  0  0  0  0  0  0  0  0  0  0  0
   15.6756   12.4427   20.5156 H   0  0  0  0  0  0  0  0  0  0  0  0
   15.2689   11.8559   18.1154 H   0  0  0  0  0  0  0  0  0  0  0  0
   16.5577   12.9671   17.6207 H   0  0  0  0  0  0  0  0  0  0  0  0
   23.9796   13.4290   18.0401 H   0  0  0  0  0  0  0  0  0  0  0  0
   17.5435   13.6802   14.9884 H   0  0  0  0  0  0  0  0  0  0  0  0
   16.8683   12.7526   16.3753 H   0  0  0  0  0  0  0  0  0  0  0  0
   16.6050   14.5092   16.3051 H   0  0  0  0  0  0  0  0  0  0  0  0
   13.3885   12.7543   19.3780 H   0  0  0  0  0  0  0  0  0  0  0  0
   13.0720   13.1194   17.6316 H   0  0  0  0  0  0  0  0  0  0  0  0
   12.8326   14.3990   18.8587 H   0  0  0  0  0  0  0  0  0  0  0  0
   20.5986    6.1319   19.0373 H   0  0  0  0  0  0  0  0  0  0  0  0
   20.6900    7.5408   17.9427 H   0  0  0  0  0  0  0  0  0  0  0  0
   18.2396    5.2302   19.6917 H   0  0  0  0  0  0  0  0  0  0  0  0
   16.1417    4.4338   18.6594 H   0  0  0  0  0  0  0  0  0  0  0  0
   15.4531    5.2694   16.4294 H   0  0  0  0  0  0  0  0  0  0  0  0
   16.8742    6.9040   15.2243 H   0  0  0  0  0  0  0  0  0  0  0  0
   18.9744    7.7107   16.2377 H   0  0  0  0  0  0  0  0  0  0  0  0
   17.0513   16.2808   17.7657 H   0  0  0  0  0  0  0  0  0  0  0  0
   22.4829   12.4626   16.1654 H   0  0  0  0  0  0  0  0  0  0  0  0
  1  2  1  0
  2  3  1  0
  5  6  1  0
  6  7  2  0
  7  8  1  0
  9 10  2  0
 10 11  1  0
 11 12  2  0
 12 13  1  0
 13 14  2  0
  9 14  1  0
  3 15  1  0
 15 12  1  0
 15 16  1  0
  8 17  2  0
 20 21  1  0
 21 22  2  0
 22 23  1  0
 23 24  2  0
 24 25  1  0
 21 26  1  0
 25 26  2  0
 19 27  1  0
  1 27  1  0
 16 27  1  0
  2 28  1  0
  4 28  1  0
  4 29  1  0
  5 29  1  0
 18 29  1  0
  7 30  1  0
  4 30  2  0
 17 31  1  0
  6 31  1  0
  5 32  2  0
  9 33  1  0
 20 33  1  0
  1 34  1  6
  1 35  1  0
  2 36  1  1
  3 37  1  1
  3 38  1  0
  8 39  1  0
 10 40  1  0
 11 41  1  0
 13 42  1  0
 14 43  1  0
 15 44  1  1
 16 45  1  6
 16 46  1  0
 17 47  1  0
 18 48  1  6
 18 49  1  0
 18 50  1  0
 19 51  1  1
 19 52  1  0
 19 53  1  0
 20 54  1  1
 20 55  1  0
 22 56  1  0
 23 57  1  0
 24 58  1  0
 25 59  1  0
 26 60  1  0
 28 61  1  0
 31 62  1  0
M  END
