7JXX_VP7_A_401
     RDKit          3D

 25 28  0  0  0  0  0  0  0  0999 V2000
  175.8037   20.6028   47.8530 N   0  0  0  0  0  0  0  0  0  0  0  0
  177.9841   20.2120   47.1315 N   0  0  0  0  0  0  0  0  0  0  0  0
  177.1225   20.9480   47.8672 C   0  0  0  0  0  0  0  0  0  0  0  0
  177.5854   19.1638   46.3960 C   0  0  0  0  0  0  0  0  0  0  0  0
  178.6738   18.5112   45.6833 C   0  0  0  0  0  0  0  0  0  0  0  0
  179.8886   19.0776   45.4402 C   0  0  0  0  0  0  0  0  0  0  0  0
  180.4180   20.3053   45.7479 C   0  0  0  0  0  0  0  0  0  0  0  0
  182.3127   21.8475   45.6459 C   0  0  0  0  0  0  0  0  0  0  0  0
  182.4840   25.1029   46.9640 C   0  0  0  0  0  0  0  0  0  0  0  0
  182.4477   19.6050   44.6455 C   0  0  0  0  0  0  0  0  0  0  0  0
  180.6096   18.1027   44.7419 C   0  0  0  0  0  0  0  0  0  0  0  0
  176.4333   16.4685   46.0562 C   0  0  0  0  0  0  0  0  0  0  0  0
  175.6151   17.7000   45.6468 C   0  0  0  0  0  0  0  0  0  0  0  0
  182.8166   22.9238   45.8829 C   0  0  0  0  0  0  0  0  0  0  0  0
  183.4357   24.2161   46.1830 C   0  0  1  0  0  0  0  0  0  0  0  0
  183.7446   24.9743   44.8905 C   0  0  0  0  0  0  0  0  0  0  0  0
  181.9029   18.3717   44.3414 C   0  0  0  0  0  0  0  0  0  0  0  0
  178.6281   17.2349   45.1616 C   0  0  0  0  0  0  0  0  0  0  0  0
  177.5815   16.2020   45.1376 C   0  0  0  0  0  0  0  0  0  0  0  0
  176.2382   18.8428   46.4063 C   0  0  0  0  0  0  0  0  0  0  0  0
  175.3268   19.5662   47.1417 C   0  0  0  0  0  0  0  0  0  0  0  0
  181.7097   20.5588   45.3415 C   0  0  0  0  0  0  0  0  0  0  0  0
  177.5986   22.0517   48.6308 N   0  0  0  0  0  0  0  0  0  0  0  0
  179.8308   17.0161   44.5916 N   0  0  0  0  0  0  0  0  0  0  0  0
  184.6172   23.9837   46.8700 O   0  0  0  0  0  0  0  0  0  0  0  0
  2  3  1  0
  1  3  2  0
  2  4  2  0
  4  5  1  0
  5  6  1  0
  6  7  2  0
  6 11  1  0
 12 13  1  0
  8 14  3  0
 15  9  1  1
 14 15  1  0
 15 16  1  0
 10 17  1  0
 11 17  2  0
  5 18  2  0
 18 19  1  0
 12 19  1  0
  4 20  1  0
 13 20  1  0
  1 21  1  0
 20 21  2  0
  8 22  1  0
 10 22  2  0
  7 22  1  0
  3 23  1  0
 11 24  1  0
 18 24  1  0
 15 25  1  0
M  END
$$$$
