
     RDKit          3D

 36 39  0  0  0  0  0  0  0  0999 V2000
   21.2281    9.1557   21.8351 C   0  0  0  0  0  0  0  0  0  0  0  0
   21.1159    9.4261   20.4601 C   0  0  0  0  0  0  0  0  0  0  0  0
   20.7902   10.7281   20.0048 C   0  0  0  0  0  0  0  0  0  0  0  0
   21.2902   10.9730   25.1220 C   0  0  0  0  0  0  0  0  0  0  0  0
   20.4389   11.7249   20.9516 C   0  0  0  0  0  0  0  0  0  0  0  0
   21.4420   13.0075   26.9852 N   0  0  0  0  0  0  0  0  0  0  0  0
   21.8237   11.7614   27.3685 C   0  0  0  0  0  0  0  0  0  0  0  0
   18.9690   13.1913   19.3703 C   0  0  0  0  0  0  0  0  0  0  0  0
   19.9065   13.1250   20.5977 C   0  0  1  0  0  0  0  0  0  0  0  0
   19.6434   13.4710   23.1168 C   0  0  0  0  0  0  0  0  0  0  0  0
   22.2508   11.5137   28.4870 O   0  0  0  0  0  0  0  0  0  0  0  0
   21.7267   10.7922   26.4124 N   0  0  0  0  0  0  0  0  0  0  0  0
   21.1447   13.3468   25.7000 C   0  0  0  0  0  0  0  0  0  0  0  0
   21.0822   14.5160   25.3371 O   0  0  0  0  0  0  0  0  0  0  0  0
   20.9304   12.2213   24.7343 C   0  0  0  0  0  0  0  0  0  0  0  0
   20.3943   12.4591   23.3620 N   0  0  0  0  0  4  0  0  0  0  0  0
   19.0309   13.6268   21.7650 C   0  0  0  0  0  0  0  0  0  0  0  0
   21.0866   14.0925   20.3821 C   0  0  0  0  0  0  0  0  0  0  0  0
   20.6168   11.4120   22.3291 C   0  0  0  0  0  0  0  0  0  0  0  0
   20.8337   10.9879   18.5168 C   0  0  0  0  0  0  0  0  0  0  0  0
   21.4069    8.2890   19.5039 C   0  0  0  0  0  0  0  0  0  0  0  0
   21.0186   10.1360   22.8082 C   0  0  0  0  0  0  0  0  0  0  0  0
   21.2287    9.8962   24.2092 N   0  0  0  0  0  0  0  0  0  0  0  0
   21.2582    8.4709   24.6599 C   0  0  0  0  0  0  0  0  0  0  0  0
   22.6886    7.8839   24.7384 C   0  0  2  0  0  0  0  0  0  0  0  0
   23.4055    8.1197   23.5134 O   0  0  0  0  0  0  0  0  0  0  0  0
   22.7137    6.3587   24.9840 C   0  0  2  0  0  0  0  0  0  0  0  0
   21.6287    6.0231   25.8648 O   0  0  0  0  0  0  0  0  0  0  0  0
   24.0551    5.8215   25.5304 C   0  0  2  0  0  0  0  0  0  0  0  0
   23.8487    4.4353   25.8490 O   0  0  0  0  0  0  0  0  0  0  0  0
   24.5805    6.5720   26.7649 C   0  0  0  0  0  0  0  0  0  0  0  0
   25.8981    7.0432   26.4929 O   0  0  0  0  0  0  0  0  0  0  0  0
   26.8366    7.4870   27.7105 P   0  0  0  0  0  5  0  0  0  0  0  0
   28.2925    7.2435   27.5359 O   0  0  0  0  0  0  0  0  0  0  0  0
   26.4889    9.0239   27.9518 O   0  0  0  0  0  0  0  0  0  0  0  0
   26.2243    6.7651   28.9954 O   0  0  0  0  0  0  0  0  0  0  0  0
  1  2  4  0
  2  3  4  0
  3  5  4  0
  6  7  4  0
  9  8  1  6
  5  9  1  0
  7 11  2  0
  4 12  4  0
  7 12  4  0
  6 13  4  0
 13 14  2  0
  4 15  4  0
 13 15  4  0
 10 16  2  0
 15 16  1  0
  9 17  1  0
 10 17  1  0
  9 18  1  0
  5 19  4  0
 16 19  1  0
  3 20  1  0
  2 21  1  0
  1 22  4  0
 19 22  4  0
 22 23  1  0
  4 23  1  0
 23 24  1  0
 24 25  1  0
 25 26  1  6
 25 27  1  0
 27 28  1  1
 27 29  1  0
 29 30  1  1
 29 31  1  0
 31 32  1  0
 32 33  1  0
 33 34  2  0
 33 35  1  0
 33 36  1  0
M  CHG  1  16   1
M  END
