7CTM_BDP_A_501
     RDKit          3D

 13 13  0  0  0  0  0  0  0  0999 V2000
   -6.5315   -4.7560  107.7626 C   0  0  1  0  0  0  0  0  0  0  0  0
   -5.1020   -5.2425  107.6013 C   0  0  1  0  0  0  0  0  0  0  0  0
   -4.8695   -5.7347  106.2069 C   0  0  2  0  0  0  0  0  0  0  0  0
   -5.9805   -6.7261  105.8842 C   0  0  1  0  0  0  0  0  0  0  0  0
   -7.2777   -5.9283  105.9999 C   0  0  1  0  0  0  0  0  0  0  0  0
   -8.4316   -6.5968  105.3818 C   0  0  0  0  0  0  0  0  0  0  0  0
   -4.2654   -4.1841  107.9538 O   0  0  0  0  0  0  0  0  0  0  0  0
   -3.6092   -6.3116  106.1167 O   0  0  0  0  0  0  0  0  0  0  0  0
   -5.7972   -7.2906  104.6463 O   0  0  0  0  0  0  0  0  0  0  0  0
   -7.4528   -5.7127  107.3595 O   0  0  0  0  0  0  0  0  0  0  0  0
   -8.9914   -7.6302  105.8636 O   0  0  0  0  0  0  0  0  0  0  0  0
   -6.7874   -4.4701  109.0993 O   0  0  0  0  0  0  0  0  0  0  0  0
   -8.9356   -6.0630  104.2018 O   0  0  0  0  0  0  0  0  0  0  0  0
  1  2  1  0
  2  3  1  0
  3  4  1  0
  4  5  1  0
  5  6  1  1
  2  7  1  6
  3  8  1  1
  4  9  1  6
  1 10  1  0
  5 10  1  0
  6 11  2  0
  1 12  1  1
  6 13  1  0
M  END
$$$$
