8ERS_WQO_A_201
     RDKit          3D

 38 40  0  0  0  0  0  0  0  0999 V2000
  -43.8573  -25.3332    0.8023 C   0  0  0  0  0  0  0  0  0  0  0  0
  -43.3004  -27.4322    1.7792 C   0  0  0  0  0  0  0  0  0  0  0  0
  -43.6795  -26.1049    1.9298 C   0  0  0  0  0  0  0  0  0  0  0  0
  -43.1004  -27.9675    0.5041 C   0  0  0  0  0  0  0  0  0  0  0  0
  -42.6664  -29.4389    0.6373 C   0  0  0  0  0  0  0  0  0  0  0  0
  -42.2245  -30.8755    2.6694 C   0  0  0  0  0  0  0  0  0  0  0  0
  -43.0895  -29.7843    2.0515 C   0  0  1  0  0  0  0  0  0  0  0  0
  -43.2776  -27.1824   -0.6178 C   0  0  0  0  0  0  0  0  0  0  0  0
  -43.6565  -25.8663   -0.4486 C   0  0  0  0  0  0  0  0  0  0  0  0
  -48.5521  -28.9585    5.9655 C   0  0  0  0  0  0  0  0  0  0  0  0
  -47.3779  -29.2761    6.6177 C   0  0  0  0  0  0  0  0  0  0  0  0
  -46.2499  -29.4726    5.8595 C   0  0  0  0  0  0  0  0  0  0  0  0
  -46.2716  -29.3475    4.4868 C   0  0  0  0  0  0  0  0  0  0  0  0
  -45.0113  -29.6123    3.6962 C   0  0  0  0  0  0  0  0  0  0  0  0
  -43.0353  -28.5143    2.8354 C   0  0  2  0  0  0  0  0  0  0  0  0
  -47.4529  -29.0363    3.8439 C   0  0  0  0  0  0  0  0  0  0  0  0
  -48.5994  -28.8325    4.5901 C   0  0  0  0  0  0  0  0  0  0  0  0
  -49.7406  -28.7693    6.7390 N   0  0  0  0  0  0  0  0  0  0  0  0
  -45.0813  -29.7835    6.5321 O   0  0  0  0  0  0  0  0  0  0  0  0
  -44.0631  -28.6123    3.7880 O   0  0  0  0  0  0  0  0  0  0  0  0
  -42.2369  -31.0255    3.9114 O   0  0  0  0  0  0  0  0  0  0  0  0
  -41.4992  -31.5942    1.9464 O   0  0  0  0  0  0  0  0  0  0  0  0
  -44.8425  -30.5605    3.0060 O   0  0  0  0  0  0  0  0  0  0  0  0
  -44.1436  -24.3463    0.8978 H   0  0  0  0  0  0  0  0  0  0  0  0
  -43.8254  -25.7036    2.8694 H   0  0  0  0  0  0  0  0  0  0  0  0
  -43.1695  -30.0559   -0.0776 H   0  0  0  0  0  0  0  0  0  0  0  0
  -41.6229  -29.5918    0.4571 H   0  0  0  0  0  0  0  0  0  0  0  0
  -44.0796  -30.1900    2.0540 H   0  0  0  0  0  0  0  0  0  0  0  0
  -43.1298  -27.5714   -1.5623 H   0  0  0  0  0  0  0  0  0  0  0  0
  -43.7921  -25.2693   -1.2794 H   0  0  0  0  0  0  0  0  0  0  0  0
  -47.3485  -29.3635    7.6456 H   0  0  0  0  0  0  0  0  0  0  0  0
  -42.1231  -28.3054    3.3540 H   0  0  0  0  0  0  0  0  0  0  0  0
  -47.4804  -28.9563    2.8153 H   0  0  0  0  0  0  0  0  0  0  0  0
  -49.4860  -28.5876    4.1221 H   0  0  0  0  0  0  0  0  0  0  0  0
  -49.7094  -28.8585    7.7190 H   0  0  0  0  0  0  0  0  0  0  0  0
  -50.5896  -28.5498    6.2914 H   0  0  0  0  0  0  0  0  0  0  0  0
  -45.0853  -29.8646    7.4656 H   0  0  0  0  0  0  0  0  0  0  0  0
  -42.7840  -30.4818    4.4435 H   0  0  0  0  0  0  0  0  0  0  0  0
  1  3  4  0
  2  3  4  0
  2  4  4  0
  4  5  1  0
  5  7  1  0
  7  6  1  0
  4  8  4  0
  1  9  4  0
  8  9  4  0
 10 11  4  0
 11 12  4  0
 12 13  4  0
 13 14  1  0
  2 15  1  0
  7 15  1  0
 13 16  4  0
 16 17  4  0
 10 17  4  0
 10 18  1  0
 12 19  1  0
 15 20  1  0
 14 20  1  0
  6 21  1  0
  6 22  2  0
 14 23  2  0
  1 24  1  0
  3 25  1  0
  5 26  1  0
  5 27  1  0
  7 28  1  1
  8 29  1  0
  9 30  1  0
 11 31  1  0
 15 32  1  6
 16 33  1  0
 17 34  1  0
 18 35  1  0
 18 36  1  0
 19 37  1  0
 21 38  1  0
M  END
