7W6F_8I6_A_201
     RDKit          3D

 20 20  0  0  0  0  0  0  0  0999 V2000
    8.0092    2.6193   14.0923 C   0  0  0  0  0  0  0  0  0  0  0  0
    6.4838    0.9239   13.3158 C   0  0  0  0  0  0  0  0  0  0  0  0
    6.7485    2.2420   13.7037 C   0  0  0  0  0  0  0  0  0  0  0  0
   11.6461   11.7471   16.9270 C   0  0  0  0  0  0  0  0  0  0  0  0
   10.9088   10.4832   16.6387 C   0  0  0  0  0  0  0  0  0  0  0  0
   11.7439    9.2882   16.3827 C   0  0  0  0  0  0  0  0  0  0  0  0
   11.4103    8.4219   15.2248 C   0  0  0  0  0  0  0  0  0  0  0  0
   11.2479    6.9885   15.5187 C   0  0  0  0  0  0  0  0  0  0  0  0
   11.0689    6.1148   14.2702 C   0  0  0  0  0  0  0  0  0  0  0  0
    9.6366    6.0461   13.8795 C   0  0  0  0  0  0  0  0  0  0  0  0
    9.2213    4.6382   13.4600 C   0  0  0  0  0  0  0  0  0  0  0  0
    8.3813    3.9786   14.5217 C   0  0  0  0  0  0  0  0  0  0  0  0
    9.0162    1.6569   14.0901 C   0  0  0  0  0  0  0  0  0  0  0  0
    8.7532    0.3468   13.7046 C   0  0  0  0  0  0  0  0  0  0  0  0
    7.4777   -0.0415   13.3099 C   0  0  0  0  0  0  0  0  0  0  0  0
    5.6288    3.1606   13.6578 C   0  0  0  0  0  0  0  0  0  0  0  0
    9.8141   -0.5715   13.7260 O   0  0  0  0  0  0  0  0  0  0  0  0
    5.2129    0.5512   12.9257 O   0  0  0  0  0  0  0  0  0  0  0  0
    5.4898    4.1708   14.3835 O   0  0  0  0  0  0  0  0  0  0  0  0
    4.5949    2.9269   12.7330 O   0  0  0  0  0  0  0  0  0  0  0  0
  2  3  1  0
  1  3  2  0
  5  4  1  1
  6  5  1  1
  7  6  1  6
  8  7  1  6
  9  8  1  1
 10  9  1  1
 10 11  1  0
 12  1  1  6
 11 12  1  6
  1 13  1  0
 13 14  2  0
  2 15  2  0
 14 15  1  0
  3 16  1  0
 14 17  1  0
  2 18  1  0
 16 19  2  0
 16 20  1  0
M  END
$$$$
