7JY3_VUD_C_201
     RDKit          3D

 43 46  0  0  0  0  0  0  0  0999 V2000
    7.6468    4.4058   40.7466 C   0  0  0  0  0  0  0  0  0  0  0  0
    8.1721    3.5025   38.1643 C   0  0  0  0  0  0  0  0  0  0  0  0
    9.2308    3.7242   39.0415 C   0  0  0  0  0  0  0  0  0  0  0  0
    7.0668    6.2452   43.7176 C   0  0  0  0  0  0  0  0  0  0  0  0
    4.9176    4.6395   41.5698 O   0  0  0  0  0  0  0  0  0  0  0  0
    5.0800   -0.5858   44.7960 C   0  0  0  0  0  0  0  0  0  0  0  0
    4.3803   -0.0836   45.8984 C   0  0  0  0  0  0  0  0  0  0  0  0
    4.8848    1.5642   43.6876 C   0  0  0  0  0  0  0  0  0  0  0  0
    4.6742    3.7422   42.6250 C   0  0  0  0  0  0  0  0  0  0  0  0
    5.3332    0.2343   43.6911 C   0  0  0  0  0  0  0  0  0  0  0  0
    4.4383    5.3039   39.2926 C   0  0  2  0  0  0  0  0  0  0  0  0
    5.1153    4.2791   40.2006 C   0  0  1  0  0  0  0  0  0  0  0  0
    6.5868    4.1362   39.8378 C   0  0  0  0  0  0  0  0  0  0  0  0
    8.9650    4.1742   40.3307 C   0  0  0  0  0  0  0  0  0  0  0  0
    6.8907    3.7122   38.5727 N   0  0  0  0  0  0  0  0  0  0  0  0
    8.4034    3.1040   36.9916 O   0  0  0  0  0  0  0  0  0  0  0  0
    7.4205    4.8935   42.0783 N   0  0  0  0  0  0  0  0  0  0  0  0
    7.5423    4.1740   43.2104 C   0  0  0  0  0  0  0  0  0  0  0  0
    7.3117    5.0083   44.2818 C   0  0  0  0  0  0  0  0  0  0  0  0
    7.1456    6.1531   42.3763 N   0  0  0  0  0  0  0  0  0  0  0  0
    5.1249    2.4090   42.5983 C   0  0  0  0  0  0  0  0  0  0  0  0
    3.9305    1.2405   45.9019 C   0  0  0  0  0  0  0  0  0  0  0  0
    4.1801    2.0675   44.8007 C   0  0  0  0  0  0  0  0  0  0  0  0
    3.7440    3.3539   44.8007 N   0  0  0  0  0  0  0  0  0  0  0  0
    3.9668    4.1944   43.7543 C   0  0  0  0  0  0  0  0  0  0  0  0
    3.4770    5.5356   43.8229 N   0  0  0  0  0  0  0  0  0  0  0  0
    5.5139   -1.8704   44.7984 F   0  0  0  0  0  0  0  0  0  0  0  0
   10.2533    3.5567   38.7261 H   0  0  0  0  0  0  0  0  0  0  0  0
    6.8472    7.1583   44.2538 H   0  0  0  0  0  0  0  0  0  0  0  0
    4.1859   -0.7206   46.7516 H   0  0  0  0  0  0  0  0  0  0  0  0
    5.8769   -0.1671   42.8441 H   0  0  0  0  0  0  0  0  0  0  0  0
    3.5757    5.7670   39.8178 H   0  0  0  0  0  0  0  0  0  0  0  0
    4.0730    4.8357   38.3570 H   0  0  0  0  0  0  0  0  0  0  0  0
    5.1600    6.1062   39.0296 H   0  0  0  0  0  0  0  0  0  0  0  0
    4.5976    3.3098   40.0262 H   0  0  0  0  0  0  0  0  0  0  0  0
    9.7908    4.3612   41.0057 H   0  0  0  0  0  0  0  0  0  0  0  0
    6.1181    3.5293   37.8919 H   0  0  0  0  0  0  0  0  0  0  0  0
    7.7769    3.1182   43.2551 H   0  0  0  0  0  0  0  0  0  0  0  0
    7.3244    4.7524   45.3326 H   0  0  0  0  0  0  0  0  0  0  0  0
    5.6638    2.0249   41.7429 H   0  0  0  0  0  0  0  0  0  0  0  0
    3.3895    1.6209   46.7596 H   0  0  0  0  0  0  0  0  0  0  0  0
    4.1239    6.3518   43.8962 H   0  0  0  0  0  0  0  0  0  0  0  0
    2.4495    5.7188   43.7944 H   0  0  0  0  0  0  0  0  0  0  0  0
  2  3  1  0
  6  7  2  0
  5  9  1  0
  8 10  2  0
  6 10  1  0
 12 11  1  0
  5 12  1  0
  1 13  2  0
 12 13  1  0
  1 14  1  0
  3 14  2  0
 13 15  1  0
  2 15  1  0
  2 16  2  0
  1 17  1  0
 17 18  1  0
 18 19  2  0
  4 19  1  0
  4 20  2  0
 17 20  1  0
  9 21  2  0
  8 21  1  0
  7 22  1  0
  8 23  1  0
 22 23  2  0
 23 24  1  0
  9 25  1  0
 24 25  2  0
 25 26  1  0
  6 27  1  0
  3 28  1  0
  4 29  1  0
  7 30  1  0
 10 31  1  0
 11 32  1  1
 11 33  1  0
 11 34  1  0
 12 35  1  1
 14 36  1  0
 15 37  1  0
 18 38  1  0
 19 39  1  0
 21 40  1  0
 22 41  1  0
 26 42  1  0
 26 43  1  0
M  END
