7AFX_R9K_A_304
     RDKit          3D

 20 22  0  0  0  0  0  0  0  0999 V2000
  -24.1440    0.8340   61.7420 C   0  0  0  0  0  0  0  0  0  0  0  0
  -24.7140    4.9770   60.8140 C   0  0  0  0  0  0  0  0  0  0  0  0
  -24.4430    2.6860   60.1590 C   0  0  0  0  0  0  0  0  0  0  0  0
  -24.7320   -3.7830   62.8070 C   0  0  0  0  0  0  0  0  0  0  0  0
  -25.3020   -2.3790   62.8500 C   0  0  0  0  0  0  0  0  0  0  0  0
  -26.5410   -2.1490   63.4270 C   0  0  0  0  0  0  0  0  0  0  0  0
  -27.0660   -0.8560   63.4670 C   0  0  0  0  0  0  0  0  0  0  0  0
  -26.3570    0.2090   62.9260 C   0  0  0  0  0  0  0  0  0  0  0  0
  -25.1140   -0.0250   62.3460 C   0  0  0  0  0  0  0  0  0  0  0  0
  -24.5840   -1.3080   62.3030 C   0  0  0  0  0  0  0  0  0  0  0  0
  -23.1060   -0.0210   61.3460 C   0  0  0  0  0  0  0  0  0  0  0  0
  -24.3130    2.3070   61.4880 C   0  0  0  0  0  0  0  0  0  0  0  0
  -24.4170    3.2690   62.4720 C   0  0  0  0  0  0  0  0  0  0  0  0
  -24.6050    4.5960   62.1390 C   0  0  0  0  0  0  0  0  0  0  0  0
  -24.6320    4.0210   59.8160 C   0  0  0  0  0  0  0  0  0  0  0  0
  -21.8270    0.3750   60.6640 C   0  0  0  0  0  0  0  0  0  0  0  0
  -23.3940   -1.2660   61.6940 N   0  0  0  0  0  0  0  0  0  0  0  0
  -21.3260    1.5190   60.8200 O   0  0  0  0  0  0  0  0  0  0  0  0
  -21.2250   -0.4700   59.9790 O   0  0  0  0  0  0  0  0  0  0  0  0
  -24.2890    2.8160   64.1370 Cl  0  0  0  0  0  0  0  0  0  0  0  0
  4  5  1  0
  5  6  2  0
  6  7  1  0
  7  8  2  0
  1  9  1  0
  8  9  1  0
  9 10  2  0
  5 10  1  0
  1 11  2  0
  3 12  1  0
  1 12  1  0
 12 13  2  0
  2 14  2  0
 13 14  1  0
  3 15  2  0
  2 15  1  0
 11 16  1  0
 11 17  1  0
 10 17  1  0
 16 18  1  0
 16 19  2  0
 13 20  1  0
M  END
$$$$
7AFX_R9K_B_304
     RDKit          3D

 20 22  0  0  0  0  0  0  0  0999 V2000
  -31.0590   10.7630   70.0790 C   0  0  0  0  0  0  0  0  0  0  0  0
  -31.9770    6.6430   69.3750 C   0  0  0  0  0  0  0  0  0  0  0  0
  -32.6290    8.9080   69.8350 C   0  0  0  0  0  0  0  0  0  0  0  0
  -30.1400   15.3750   69.7120 C   0  0  0  0  0  0  0  0  0  0  0  0
  -30.1410   14.0360   69.0150 C   0  0  0  0  0  0  0  0  0  0  0  0
  -29.7260   13.9090   67.6940 C   0  0  0  0  0  0  0  0  0  0  0  0
  -29.7500   12.6620   67.0670 C   0  0  0  0  0  0  0  0  0  0  0  0
  -30.1820   11.5430   67.7640 C   0  0  0  0  0  0  0  0  0  0  0  0
  -30.5930   11.6790   69.0950 C   0  0  0  0  0  0  0  0  0  0  0  0
  -30.5740   12.9090   69.7160 C   0  0  0  0  0  0  0  0  0  0  0  0
  -31.3180   11.5270   71.2170 C   0  0  0  0  0  0  0  0  0  0  0  0
  -31.3010    9.2900   69.8470 C   0  0  0  0  0  0  0  0  0  0  0  0
  -30.3110    8.3500   69.5990 C   0  0  0  0  0  0  0  0  0  0  0  0
  -30.6550    7.0270   69.3790 C   0  0  0  0  0  0  0  0  0  0  0  0
  -32.9700    7.5770   69.6030 C   0  0  0  0  0  0  0  0  0  0  0  0
  -31.8280   11.0300   72.5390 C   0  0  0  0  0  0  0  0  0  0  0  0
  -31.0130   12.7830   70.9750 N   0  0  0  0  0  0  0  0  0  0  0  0
  -32.4500   11.8120   73.2930 O   0  0  0  0  0  0  0  0  0  0  0  0
  -31.6250    9.8420   72.8880 O   0  0  0  0  0  0  0  0  0  0  0  0
  -28.6280    8.7880   69.5920 Cl  0  0  0  0  0  0  0  0  0  0  0  0
  4  5  1  0
  5  6  2  0
  6  7  1  0
  7  8  2  0
  1  9  1  0
  8  9  1  0
  9 10  2  0
  5 10  1  0
  1 11  2  0
  3 12  1  0
  1 12  1  0
 12 13  2  0
  2 14  2  0
 13 14  1  0
  3 15  2  0
  2 15  1  0
 11 16  1  0
 11 17  1  0
 10 17  1  0
 16 18  1  0
 16 19  2  0
 13 20  1  0
M  END
$$$$
