7NUT_GLP_A_501
     RDKit          3D

 16 16  0  0  0  0  0  0  0  0999 V2000
   -3.6728  -13.2455  -33.3331 C   0  0  1  0  0  0  0  0  0  0  0  0
   -2.3000  -13.4270  -33.9617 C   0  0  1  0  0  0  0  0  0  0  0  0
   -1.3665  -12.3452  -33.5307 C   0  0  2  0  0  0  0  0  0  0  0  0
   -1.9678  -10.9923  -33.7439 C   0  0  1  0  0  0  0  0  0  0  0  0
   -3.3456  -10.9002  -33.0690 C   0  0  1  0  0  0  0  0  0  0  0  0
   -3.9576   -9.5351  -33.2166 C   0  0  0  0  0  0  0  0  0  0  0  0
   -3.5685  -13.3141  -31.9900 O   0  0  0  0  0  0  0  0  0  0  0  0
   -1.7785  -14.7391  -33.5487 N   0  0  0  0  0  0  0  0  0  0  0  0
   -0.1321  -12.4424  -34.3028 O   0  0  0  0  0  0  0  0  0  0  0  0
   -1.1180   -9.9765  -33.2121 O   0  0  0  0  0  0  0  0  0  0  0  0
   -4.2317  -11.8932  -33.6688 O   0  0  0  0  0  0  0  0  0  0  0  0
   -4.1895   -9.2767  -34.5677 O   0  0  0  0  0  0  0  0  0  0  0  0
   -4.7986   -7.7764  -34.8642 P   0  0  2  0  0  0  0  0  0  0  0  0
   -4.1218   -6.7509  -33.9275 O   0  0  0  0  0  0  0  0  0  0  0  0
   -6.3097   -7.7737  -34.5787 O   0  0  0  0  0  0  0  0  0  0  0  0
   -4.4959   -7.4896  -36.3581 O   0  0  0  0  0  0  0  0  0  0  0  0
  1  2  1  0
  2  3  1  0
  3  4  1  0
  4  5  1  0
  5  6  1  6
  1  7  1  1
  2  8  1  1
  3  9  1  6
  4 10  1  1
  1 11  1  0
  5 11  1  0
  6 12  1  0
 12 13  1  0
 13 14  2  0
 13 15  1  6
 13 16  1  0
M  END
