7QE4_NGA_BBB_404
     RDKit          3D

 30 30  0  0  0  0  0  0  0  0999 V2000
   49.8073   18.3556   74.8253 C   0  0  2  0  0  0  0  0  0  0  0  0
   50.3451   19.6760   75.3822 C   0  0  1  0  0  0  0  0  0  0  0  0
   49.8212   19.9122   76.7978 C   0  0  2  0  0  0  0  0  0  0  0  0
   48.3079   19.7953   76.8119 C   0  0  2  0  0  0  0  0  0  0  0  0
   47.9517   18.4358   76.2382 C   0  0  1  0  0  0  0  0  0  0  0  0
   46.4573   18.1790   76.3135 C   0  0  0  0  0  0  0  0  0  0  0  0
   52.5046   19.3091   76.4775 C   0  0  0  0  0  0  0  0  0  0  0  0
   53.8758   18.7845   76.1638 C   0  0  0  0  0  0  0  0  0  0  0  0
   51.7946   19.6609   75.4005 N   0  0  0  0  0  0  0  0  0  0  0  0
   50.2133   18.1238   73.4716 O   0  0  0  0  0  0  0  0  0  0  0  0
   50.1752   21.2080   77.2781 O   0  0  0  0  0  0  0  0  0  0  0  0
   47.7638   20.8899   76.0492 O   0  0  0  0  0  0  0  0  0  0  0  0
   48.3852   18.3659   74.8818 O   0  0  0  0  0  0  0  0  0  0  0  0
   46.0964   18.3217   77.6837 O   0  0  0  0  0  0  0  0  0  0  0  0
   52.0923   19.3978   77.6319 O   0  0  0  0  0  0  0  0  0  0  0  0
   50.2121   17.5689   75.4270 H   0  0  0  0  0  0  0  0  0  0  0  0
   50.0080   20.4688   74.7475 H   0  0  0  0  0  0  0  0  0  0  0  0
   50.2646   19.1731   77.4318 H   0  0  0  0  0  0  0  0  0  0  0  0
   47.8945   19.8586   77.7967 H   0  0  0  0  0  0  0  0  0  0  0  0
   48.4457   17.6849   76.8188 H   0  0  0  0  0  0  0  0  0  0  0  0
   46.2336   17.1897   75.9725 H   0  0  0  0  0  0  0  0  0  0  0  0
   45.9135   18.8618   75.6947 H   0  0  0  0  0  0  0  0  0  0  0  0
   54.0274   18.7932   75.1046 H   0  0  0  0  0  0  0  0  0  0  0  0
   53.9666   17.7829   76.5289 H   0  0  0  0  0  0  0  0  0  0  0  0
   54.6108   19.4037   76.6344 H   0  0  0  0  0  0  0  0  0  0  0  0
   52.2779   19.9214   74.5832 H   0  0  0  0  0  0  0  0  0  0  0  0
   49.8584   18.8251   72.9031 H   0  0  0  0  0  0  0  0  0  0  0  0
   49.7768   21.8841   76.7080 H   0  0  0  0  0  0  0  0  0  0  0  0
   48.1189   20.8632   75.1469 H   0  0  0  0  0  0  0  0  0  0  0  0
   46.6039   17.6918   78.2190 H   0  0  0  0  0  0  0  0  0  0  0  0
  1  2  1  0
  2  3  1  0
  3  4  1  0
  4  5  1  0
  5  6  1  0
  7  8  1  0
  2  9  1  0
  7  9  1  0
  1 10  1  0
  3 11  1  0
  4 12  1  0
  1 13  1  0
  5 13  1  0
  6 14  1  0
  7 15  2  0
  1 16  1  1
  2 17  1  6
  3 18  1  1
  4 19  1  1
  5 20  1  1
  6 21  1  0
  6 22  1  0
  8 23  1  0
  8 24  1  0
  8 25  1  0
  9 26  1  0
 10 27  1  0
 11 28  1  0
 12 29  1  0
 14 30  1  0
M  END
