7MWU_ZPM_A_2002
     RDKit          3D

  7  7  0  0  0  0  0  0  0  0999 V2000
    9.6985   48.2420   53.6806 C   0  0  0  0  0  0  0  0  0  0  0  0
   10.4908   47.5659   52.5738 C   0  0  0  0  0  0  0  0  0  0  0  0
    9.9985   48.7101   51.6941 C   0  0  2  0  0  0  0  0  0  0  0  0
    8.7528   48.6771   52.5762 C   0  0  0  0  0  0  0  0  0  0  0  0
    9.7921   48.3575   50.2810 C   0  0  0  0  0  0  0  0  0  0  0  0
   10.9242   48.0842   49.5132 O   0  0  0  0  0  0  0  0  0  0  0  0
    8.6343   48.3081   49.7971 O   0  0  0  0  0  0  0  0  0  0  0  0
  1  2  1  6
  2  3  1  1
  3  4  1  0
  4  1  1  1
  3  5  1  6
  5  6  1  0
  5  7  2  0
M  END
$$$$
