7P5T_5YG_A_402
     RDKit          3D

 23 25  0  0  0  0  0  0  0  0999 V2000
  -15.9321   12.9731  -18.3035 C   0  0  0  0  0  0  0  0  0  0  0  0
  -16.1623    9.4164  -18.1556 C   0  0  0  0  0  0  0  0  0  0  0  0
  -15.3996    8.3146  -17.8011 C   0  0  0  0  0  0  0  0  0  0  0  0
  -14.0145    8.4271  -17.7344 C   0  0  0  0  0  0  0  0  0  0  0  0
  -13.1779    7.2060  -17.3590 C   0  0  0  0  0  0  0  0  0  0  0  0
  -11.9068    6.1975  -15.4264 C   0  0  0  0  0  0  0  0  0  0  0  0
  -10.1212    4.7337  -15.9939 C   0  0  0  0  0  0  0  0  0  0  0  0
   -8.3535    4.0062  -14.4127 C   0  0  0  0  0  0  0  0  0  0  0  0
   -8.4171    2.5213  -14.1277 C   0  0  0  0  0  0  0  0  0  0  0  0
   -7.2099    1.8810  -13.9311 C   0  0  0  0  0  0  0  0  0  0  0  0
   -7.2265    0.5151  -13.6799 C   0  0  0  0  0  0  0  0  0  0  0  0
   -9.5215    0.4387  -13.8065 C   0  0  0  0  0  0  0  0  0  0  0  0
   -9.5975    1.8024  -14.0901 C   0  0  0  0  0  0  0  0  0  0  0  0
  -11.4470    6.2507  -14.1090 C   0  0  0  0  0  0  0  0  0  0  0  0
  -13.4123    9.6512  -18.0265 C   0  0  0  0  0  0  0  0  0  0  0  0
  -15.5625   10.6389  -18.4363 C   0  0  0  0  0  0  0  0  0  0  0  0
  -11.2394    5.4357  -16.3554 C   0  0  0  0  0  0  0  0  0  0  0  0
   -9.6433    4.7520  -14.6922 C   0  0  0  0  0  0  0  0  0  0  0  0
  -10.3136    5.5160  -13.7305 C   0  0  0  0  0  0  0  0  0  0  0  0
  -14.1832   10.7536  -18.3850 C   0  0  0  0  0  0  0  0  0  0  0  0
  -13.0616    6.9503  -15.9127 N   0  0  0  0  0  0  0  0  0  0  0  0
   -8.3567   -0.1813  -13.6036 N   0  0  0  0  0  0  0  0  0  0  0  0
  -16.3766   11.7332  -18.7830 O   0  0  0  0  0  0  0  0  0  0  0  0
  2  3  2  0
  3  4  1  0
  4  5  1  0
  8  9  1  0
  9 10  2  0
 10 11  1  0
 12 13  2  0
  9 13  1  0
  6 14  2  0
  4 15  2  0
  2 16  1  0
  7 17  2  0
  6 17  1  0
  8 18  1  0
  7 18  1  0
 18 19  2  0
 14 19  1  0
 15 20  1  0
 16 20  2  0
  6 21  1  0
  5 21  1  0
 11 22  2  0
 12 22  1  0
 16 23  1  0
  1 23  1  0
M  END
