1W2G_THM_B_1210
     RDKit          3D

 31 32  0  0  0  0  0  0  0  0999 V2000
   34.3201   26.2653   70.8490 O   0  0  0  0  0  0  0  0  0  0  0  0
   33.8592   27.4686   70.2944 C   0  0  2  0  0  0  0  0  0  0  0  0
   33.6585   27.3259   68.7804 C   0  0  1  0  0  0  0  0  0  0  0  0
   32.6387   28.1993   68.3560 O   0  0  0  0  0  0  0  0  0  0  0  0
   34.9181   27.6560   67.9918 C   0  0  1  0  0  0  0  0  0  0  0  0
   35.7145   26.5132   67.8178 O   0  0  0  0  0  0  0  0  0  0  0  0
   34.3646   28.1462   66.6824 C   0  0  1  0  0  0  0  0  0  0  0  0
   32.9521   28.6084   67.0389 C   0  0  2  0  0  0  0  0  0  0  0  0
   32.8385   30.0777   66.9185 N   0  0  0  0  0  0  0  0  0  0  0  0
   32.3331   30.6553   65.7801 C   0  0  0  0  0  0  0  0  0  0  0  0
   31.9304   29.9407   64.8209 O   0  0  0  0  0  0  0  0  0  0  0  0
   32.2663   32.0099   65.6681 N   0  0  0  0  0  0  0  0  0  0  0  0
   32.7072   32.8238   66.6622 C   0  0  0  0  0  0  0  0  0  0  0  0
   32.6385   34.0752   66.5214 O   0  0  0  0  0  0  0  0  0  0  0  0
   33.2396   32.2692   67.8312 C   0  0  0  0  0  0  0  0  0  0  0  0
   33.7745   33.1397   68.9345 C   0  0  1  0  0  0  0  0  0  0  0  0
   33.3112   30.8759   67.9250 C   0  0  0  0  0  0  0  0  0  0  0  0
   35.1809   26.0543   70.4019 H   0  0  0  0  0  0  0  0  0  0  0  0
   34.5568   28.3074   70.5233 H   0  0  0  0  0  0  0  0  0  0  0  0
   32.8824   27.7146   70.7625 H   0  0  0  0  0  0  0  0  0  0  0  0
   33.3354   26.2822   68.5601 H   0  0  0  0  0  0  0  0  0  0  0  0
   35.4946   28.4726   68.4881 H   0  0  0  0  0  0  0  0  0  0  0  0
   36.4083   26.7546   67.1502 H   0  0  0  0  0  0  0  0  0  0  0  0
   34.9923   28.9634   66.2630 H   0  0  0  0  0  0  0  0  0  0  0  0
   34.3120   27.3158   65.9428 H   0  0  0  0  0  0  0  0  0  0  0  0
   32.2261   28.1053   66.3618 H   0  0  0  0  0  0  0  0  0  0  0  0
   31.8751   32.4337   64.7955 H   0  0  0  0  0  0  0  0  0  0  0  0
   32.9597   33.7658   69.3556 H   0  0  0  0  0  0  0  0  0  0  0  0
   34.1998   32.5305   69.7604 H   0  0  0  0  0  0  0  0  0  0  0  0
   34.5707   33.8002   68.5319 H   0  0  0  0  0  0  0  0  0  0  0  0
   33.7517   30.4321   68.8099 H   0  0  0  0  0  0  0  0  0  0  0  0
  1  2  1  0
  3  2  1  0
  3  4  1  0
  3  5  1  0
  5  6  1  0
  5  7  1  0
  4  8  1  0
  7  8  1  0
  8  9  1  0
  9 10  1  0
 10 11  2  0
 10 12  1  0
 12 13  1  0
 13 14  2  0
 13 15  1  0
 15 16  1  0
  9 17  1  0
 15 17  2  0
  1 18  1  0
  2 19  1  6
  2 20  1  0
  3 21  1  1
  5 22  1  1
  6 23  1  0
  7 24  1  6
  7 25  1  0
  8 26  1  6
 12 27  1  0
 16 28  1  1
 16 29  1  0
 16 30  1  0
 17 31  1  0
M  END
