8GFD_ZHR_A_601
     RDKit          3D

 49 51  0  0  0  0  0  0  0  0999 V2000
   -4.7124    0.7122   -0.2630 C   0  0  0  0  0  0  0  0  0  0  0  0
   -3.3772    0.0425   -0.2594 C   0  0  0  0  0  0  0  0  0  0  0  0
   -3.2961   -1.1824   -0.5503 O   0  0  0  0  0  0  0  0  0  0  0  0
   -2.2066    0.7822    0.1175 N   0  0  0  0  0  0  0  0  0  0  0  0
   -0.8818    0.1644    0.2319 C   0  0  2  0  0  0  0  0  0  0  0  0
   -0.6443   -0.2781    1.6894 C   0  0  1  0  0  0  0  0  0  0  0  0
   -1.1891   -1.5599    1.8782 O   0  0  0  0  0  0  0  0  0  0  0  0
    0.8563   -0.2893    1.9957 C   0  0  2  0  0  0  0  0  0  0  0  0
    1.0604   -0.7018    3.3233 O   0  0  0  0  0  0  0  0  0  0  0  0
    1.4312    1.1393    1.7840 C   0  0  1  0  0  0  0  0  0  0  0  0
    2.9474    1.1145    1.5181 C   0  0  0  0  0  0  0  0  0  0  0  0
    3.4403    2.4180    1.3633 O   0  0  0  0  0  0  0  0  0  0  0  0
    0.7506    1.9133    0.7956 O   0  0  0  0  0  0  0  0  0  0  0  0
    0.2155    1.1477   -0.2728 C   0  0  1  0  0  0  0  0  0  0  0  0
    1.2567    0.4471   -0.9370 O   0  0  0  0  0  0  0  0  0  0  0  0
    0.9597    0.2478   -2.3082 C   0  0  0  0  0  0  0  0  0  0  0  0
    1.6128   -1.0492   -2.7867 C   0  0  0  0  0  0  0  0  0  0  0  0
    1.0793   -2.2264   -2.0139 C   0  0  0  0  0  0  0  0  0  0  0  0
    1.7933   -2.7267   -0.8938 C   0  0  0  0  0  0  0  0  0  0  0  0
    1.2501   -3.7488   -0.0946 C   0  0  0  0  0  0  0  0  0  0  0  0
   -0.0050   -4.2430   -0.4361 C   0  0  0  0  0  0  0  0  0  0  0  0
   -0.6968   -5.1704    0.1784 O   0  0  0  0  0  0  0  0  0  0  0  0
   -1.8361   -5.3171   -0.4744 C   0  0  0  0  0  0  0  0  0  0  0  0
   -1.8894   -4.4491   -1.5601 C   0  0  0  0  0  0  0  0  0  0  0  0
   -0.6956   -3.7687   -1.5165 C   0  0  0  0  0  0  0  0  0  0  0  0
   -0.1891   -2.7616   -2.3328 C   0  0  0  0  0  0  0  0  0  0  0  0
   -5.4310    0.1401   -0.8875 H   0  0  0  0  0  0  0  0  0  0  0  0
   -4.6205    1.7376   -0.6774 H   0  0  0  0  0  0  0  0  0  0  0  0
   -5.0986    0.7694    0.7758 H   0  0  0  0  0  0  0  0  0  0  0  0
   -2.3266    1.7657    0.4534 H   0  0  0  0  0  0  0  0  0  0  0  0
   -0.8463   -0.7380   -0.4148 H   0  0  0  0  0  0  0  0  0  0  0  0
   -1.1403    0.4499    2.3765 H   0  0  0  0  0  0  0  0  0  0  0  0
   -1.3523   -1.6662    2.8520 H   0  0  0  0  0  0  0  0  0  0  0  0
    1.3447   -1.0109    1.3007 H   0  0  0  0  0  0  0  0  0  0  0  0
    1.9954   -1.0283    3.3835 H   0  0  0  0  0  0  0  0  0  0  0  0
    1.2902    1.6864    2.7422 H   0  0  0  0  0  0  0  0  0  0  0  0
    3.4634    0.6520    2.3860 H   0  0  0  0  0  0  0  0  0  0  0  0
    3.1949    0.4955    0.6270 H   0  0  0  0  0  0  0  0  0  0  0  0
    3.2653    2.6789    0.4211 H   0  0  0  0  0  0  0  0  0  0  0  0
   -0.2536    1.8889   -0.9641 H   0  0  0  0  0  0  0  0  0  0  0  0
    1.3735    1.0967   -2.8937 H   0  0  0  0  0  0  0  0  0  0  0  0
   -0.1343    0.1836   -2.5197 H   0  0  0  0  0  0  0  0  0  0  0  0
    1.4038   -1.1878   -3.8698 H   0  0  0  0  0  0  0  0  0  0  0  0
    2.7160   -0.9736   -2.6698 H   0  0  0  0  0  0  0  0  0  0  0  0
    2.7546   -2.3051   -0.6266 H   0  0  0  0  0  0  0  0  0  0  0  0
    1.7828   -4.1254    0.7690 H   0  0  0  0  0  0  0  0  0  0  0  0
   -2.6109   -6.0171   -0.1918 H   0  0  0  0  0  0  0  0  0  0  0  0
   -2.6935   -4.3328   -2.2744 H   0  0  0  0  0  0  0  0  0  0  0  0
   -0.7676   -2.3828   -3.1663 H   0  0  0  0  0  0  0  0  0  0  0  0
  1  2  1  0
  2  3  2  0
  2  4  1  0
  5  4  1  0
  5  6  1  0
  6  7  1  0
  6  8  1  0
  8  9  1  0
  8 10  1  0
 10 11  1  0
 11 12  1  0
 10 13  1  0
  5 14  1  0
 13 14  1  0
 14 15  1  0
 15 16  1  0
 16 17  1  0
 17 18  1  0
 18 19  2  0
 19 20  1  0
 20 21  2  0
 21 22  1  0
 22 23  1  0
 23 24  2  0
 21 25  1  0
 24 25  1  0
 18 26  1  0
 25 26  2  0
  1 27  1  0
  1 28  1  0
  1 29  1  0
  4 30  1  0
  5 31  1  6
  6 32  1  1
  7 33  1  0
  8 34  1  6
  9 35  1  0
 10 36  1  1
 11 37  1  0
 11 38  1  0
 12 39  1  0
 14 40  1  6
 16 41  1  0
 16 42  1  0
 17 43  1  0
 17 44  1  0
 19 45  1  0
 20 46  1  0
 23 47  1  0
 24 48  1  0
 26 49  1  0
M  END
