7RNI_60I_B_502
     RDKit          3D

 65 68  0  0  0  0  0  0  0  0999 V2000
  182.8796  129.3966   31.4989 N   0  0  0  0  0  4  0  0  0  0  0  0
  180.7164  129.1747   28.6801 C   0  0  0  0  0  0  0  0  0  0  0  0
  181.3922  125.7197   29.5445 O   0  0  0  0  0  0  0  0  0  0  0  0
  181.5097  128.9328   29.9216 C   0  0  0  0  0  0  0  0  0  0  0  0
  180.3317  125.0555   32.5806 C   0  0  0  0  0  0  0  0  0  0  0  0
  177.2079  122.9402   32.1904 C   0  0  0  0  0  0  0  0  0  0  0  0
  178.0664  121.8020   31.7183 C   0  0  0  0  0  0  0  0  0  0  0  0
  178.9149  120.3095   30.4252 C   0  0  0  0  0  0  0  0  0  0  0  0
  179.2750  119.4975   29.3524 C   0  0  0  0  0  0  0  0  0  0  0  0
  179.9985  118.3402   29.6088 C   0  0  0  0  0  0  0  0  0  0  0  0
  180.3644  117.9994   30.9084 C   0  0  0  0  0  0  0  0  0  0  0  0
  180.0207  118.8105   31.9792 C   0  0  0  0  0  0  0  0  0  0  0  0
  179.2905  119.9569   31.7144 C   0  0  0  0  0  0  0  0  0  0  0  0
  178.7856  120.9236   34.0153 C   0  0  0  0  0  0  0  0  0  0  0  0
  181.6181  127.7515   30.7193 C   0  0  0  0  0  0  0  0  0  0  0  0
  180.1211  120.5027   34.6707 C   0  0  1  0  0  0  0  0  0  0  0  0
  181.2429  120.3060   33.6583 C   0  0  0  0  0  0  0  0  0  0  0  0
  180.5521  121.6192   35.6200 C   0  0  0  0  0  0  0  0  0  0  0  0
  179.9529  119.2200   35.4740 C   0  0  0  0  0  0  0  0  0  0  0  0
  182.4990  128.1289   31.7186 C   0  0  0  0  0  0  0  0  0  0  0  0
  183.7958  130.2366   32.2620 C   0  0  0  0  0  0  0  0  0  0  0  0
  182.9976  127.3918   32.9138 C   0  0  0  0  0  0  0  0  0  0  0  0
  181.0528  126.3655   30.5300 C   0  0  0  0  0  0  0  0  0  0  0  0
  178.7251  126.2709   31.2625 C   0  0  0  0  0  0  0  0  0  0  0  0
  177.9080  125.0160   31.0523 C   0  0  0  0  0  0  0  0  0  0  0  0
  179.5200  123.7785   32.4212 C   0  0  0  0  0  0  0  0  0  0  0  0
  182.2686  129.9041   30.3923 N   0  0  0  0  0  0  0  0  0  0  0  0
  180.1372  125.9120   31.4056 N   0  0  0  0  0  0  0  0  0  0  0  0
  178.0827  124.1525   32.2570 N   0  0  0  0  0  0  0  0  0  0  0  0
  178.1527  121.4796   30.4460 N   0  0  0  0  0  0  0  0  0  0  0  0
  178.7348  120.9297   32.5399 N   0  0  0  0  0  4  0  0  0  0  0  0
  180.1600  128.2942   28.4352 H   0  0  0  0  0  0  0  0  0  0  0  0
  181.3788  129.4136   27.8744 H   0  0  0  0  0  0  0  0  0  0  0  0
  180.0420  129.9897   28.8409 H   0  0  0  0  0  0  0  0  0  0  0  0
  181.3688  124.8089   32.6739 H   0  0  0  0  0  0  0  0  0  0  0  0
  180.0071  125.5759   33.4574 H   0  0  0  0  0  0  0  0  0  0  0  0
  176.8089  122.7218   33.1589 H   0  0  0  0  0  0  0  0  0  0  0  0
  176.3862  123.0995   31.5239 H   0  0  0  0  0  0  0  0  0  0  0  0
  179.0097  119.7504   28.3877 H   0  0  0  0  0  0  0  0  0  0  0  0
  180.2687  117.7246   28.8257 H   0  0  0  0  0  0  0  0  0  0  0  0
  180.8979  117.1323   31.0767 H   0  0  0  0  0  0  0  0  0  0  0  0
  180.3002  118.5677   32.9425 H   0  0  0  0  0  0  0  0  0  0  0  0
  178.5602  121.9146   34.3499 H   0  0  0  0  0  0  0  0  0  0  0  0
  178.0817  120.1751   34.3141 H   0  0  0  0  0  0  0  0  0  0  0  0
  181.3697  121.2022   33.0877 H   0  0  0  0  0  0  0  0  0  0  0  0
  180.9940  119.4980   33.0025 H   0  0  0  0  0  0  0  0  0  0  0  0
  182.1528  120.0796   34.1737 H   0  0  0  0  0  0  0  0  0  0  0  0
  180.6744  122.5283   35.0691 H   0  0  0  0  0  0  0  0  0  0  0  0
  181.4797  121.3552   36.0833 H   0  0  0  0  0  0  0  0  0  0  0  0
  179.8038  121.7562   36.3726 H   0  0  0  0  0  0  0  0  0  0  0  0
  179.6507  118.4276   34.8216 H   0  0  0  0  0  0  0  0  0  0  0  0
  179.2070  119.3660   36.2272 H   0  0  0  0  0  0  0  0  0  0  0  0
  180.8829  118.9652   35.9378 H   0  0  0  0  0  0  0  0  0  0  0  0
  184.1813  129.6817   33.0916 H   0  0  0  0  0  0  0  0  0  0  0  0
  183.2739  131.0988   32.6212 H   0  0  0  0  0  0  0  0  0  0  0  0
  184.6043  130.5456   31.6329 H   0  0  0  0  0  0  0  0  0  0  0  0
  183.6741  128.0150   33.4605 H   0  0  0  0  0  0  0  0  0  0  0  0
  183.5054  126.5041   32.5992 H   0  0  0  0  0  0  0  0  0  0  0  0
  182.1714  127.1271   33.5400 H   0  0  0  0  0  0  0  0  0  0  0  0
  178.3919  126.7699   32.1484 H   0  0  0  0  0  0  0  0  0  0  0  0
  178.6047  126.9214   30.4216 H   0  0  0  0  0  0  0  0  0  0  0  0
  178.2519  124.4992   30.1808 H   0  0  0  0  0  0  0  0  0  0  0  0
  176.8757  125.2605   30.9134 H   0  0  0  0  0  0  0  0  0  0  0  0
  179.6370  123.1648   33.2899 H   0  0  0  0  0  0  0  0  0  0  0  0
  179.8582  123.2315   31.5661 H   0  0  0  0  0  0  0  0  0  0  0  0
  2  4  1  0
  6  7  1  0
  8  9  4  0
  9 10  4  0
 10 11  4  0
 11 12  4  0
  8 13  4  0
 12 13  4  0
  4 15  4  0
 16 14  1  6
 16 17  1  0
 16 18  1  0
 16 19  1  0
  1 20  4  0
 15 20  4  0
  1 21  1  0
 20 22  1  0
  3 23  2  0
 15 23  1  0
 24 25  1  0
  5 26  1  0
  1 27  4  0
  4 27  4  0
 23 28  1  0
 24 28  1  0
  5 28  1  0
  6 29  1  0
 25 29  1  0
 26 29  1  0
  8 30  4  0
  7 30  4  0
  7 31  4  0
 13 31  4  0
 14 31  1  0
  2 32  1  0
  2 33  1  0
  2 34  1  0
  5 35  1  0
  5 36  1  0
  6 37  1  0
  6 38  1  0
  9 39  1  0
 10 40  1  0
 11 41  1  0
 12 42  1  0
 14 43  1  0
 14 44  1  0
 17 45  1  0
 17 46  1  0
 17 47  1  0
 18 48  1  0
 18 49  1  0
 18 50  1  0
 19 51  1  0
 19 52  1  0
 19 53  1  0
 21 54  1  0
 21 55  1  0
 21 56  1  0
 22 57  1  0
 22 58  1  0
 22 59  1  0
 24 60  1  0
 24 61  1  0
 25 62  1  0
 25 63  1  0
 26 64  1  0
 26 65  1  0
M  CHG  2   1   1  31   1
M  END
