7Q19_DSM_AAA_201
     RDKit          3D

 42 44  0  0  0  0  0  0  0  0999 V2000
   -6.6719   47.6471   17.4001 C   0  0  2  0  0  0  0  0  0  0  0  0
   -6.4676   49.0338   16.9779 N   0  0  0  0  0  0  0  0  0  0  0  0
   -6.6486   49.1552   15.5267 C   0  0  2  0  0  0  0  0  0  0  0  0
   -6.5022   50.6195   15.1024 C   0  0  2  0  0  0  0  0  0  0  0  0
   -7.8569   51.3206   14.8817 C   0  0  1  0  0  0  0  0  0  0  0  0
   -8.1870   51.5761   13.4619 N   0  0  0  0  0  0  0  0  0  0  0  0
   -7.1427   52.0289   12.5576 C   0  0  0  0  0  0  0  0  0  0  0  0
   -5.8143   51.6065   12.7945 C   0  0  0  0  0  0  0  0  0  0  0  0
   -4.7661   52.0063   11.9692 C   0  0  0  0  0  0  0  0  0  0  0  0
   -5.0137   52.8269   10.8775 C   0  0  0  0  0  0  0  0  0  0  0  0
   -6.3120   53.2468   10.6027 C   0  0  0  0  0  0  0  0  0  0  0  0
   -7.3944   52.8721   11.4239 C   0  0  0  0  0  0  0  0  0  0  0  0
   -8.7559   53.3664   10.9559 C   0  0  2  0  0  0  0  0  0  0  0  0
   -9.8849   53.3113   11.9773 C   0  0  1  0  0  0  0  0  0  0  0  0
  -10.2797   51.8847   12.2169 C   0  0  0  0  0  0  0  0  0  0  0  0
   -9.4003   51.0397   12.9067 C   0  0  0  0  0  0  0  0  0  0  0  0
  -11.4732   51.3679   11.6861 C   0  0  0  0  0  0  0  0  0  0  0  0
  -11.7916   50.0182   11.8575 C   0  0  0  0  0  0  0  0  0  0  0  0
  -10.9154   49.1749   12.5438 C   0  0  0  0  0  0  0  0  0  0  0  0
   -9.7214   49.6806   13.0640 C   0  0  0  0  0  0  0  0  0  0  0  0
   -7.7557   47.4388   17.5305 H   0  0  0  0  0  0  0  0  0  0  0  0
   -6.1325   47.4373   18.3503 H   0  0  0  0  0  0  0  0  0  0  0  0
   -6.2837   46.9632   16.6160 H   0  0  0  0  0  0  0  0  0  0  0  0
   -7.2026   49.6135   17.4477 H   0  0  0  0  0  0  0  0  0  0  0  0
   -7.6527   48.7728   15.2326 H   0  0  0  0  0  0  0  0  0  0  0  0
   -5.8675   48.5637   15.0102 H   0  0  0  0  0  0  0  0  0  0  0  0
   -5.8693   50.6842   14.1928 H   0  0  0  0  0  0  0  0  0  0  0  0
   -5.9687   51.1728   15.9060 H   0  0  0  0  0  0  0  0  0  0  0  0
   -8.6455   50.6861   15.3436 H   0  0  0  0  0  0  0  0  0  0  0  0
   -7.8430   52.2870   15.4301 H   0  0  0  0  0  0  0  0  0  0  0  0
   -5.5800   50.9431   13.6158 H   0  0  0  0  0  0  0  0  0  0  0  0
   -3.7578   51.6690   12.1733 H   0  0  0  0  0  0  0  0  0  0  0  0
   -4.1986   53.1302   10.2331 H   0  0  0  0  0  0  0  0  0  0  0  0
   -6.4762   53.8701    9.7314 H   0  0  0  0  0  0  0  0  0  0  0  0
   -9.0509   52.7941   10.0485 H   0  0  0  0  0  0  0  0  0  0  0  0
   -8.6564   54.4300   10.6443 H   0  0  0  0  0  0  0  0  0  0  0  0
   -9.5591   53.8072   12.9139 H   0  0  0  0  0  0  0  0  0  0  0  0
  -10.7521   53.8906   11.5907 H   0  0  0  0  0  0  0  0  0  0  0  0
  -12.1521   52.0059   11.1342 H   0  0  0  0  0  0  0  0  0  0  0  0
  -12.7132   49.6237   11.4494 H   0  0  0  0  0  0  0  0  0  0  0  0
  -11.1598   48.1280   12.6700 H   0  0  0  0  0  0  0  0  0  0  0  0
   -9.0473   49.0154   13.5878 H   0  0  0  0  0  0  0  0  0  0  0  0
  1  2  1  0
  2  3  1  0
  3  4  1  0
  4  5  1  0
  5  6  1  0
  6  7  1  0
  7  8  2  0
  8  9  1  0
  9 10  2  0
 10 11  1  0
  7 12  1  0
 11 12  2  0
 12 13  1  0
 13 14  1  0
 14 15  1  0
  6 16  1  0
 15 16  2  0
 15 17  1  0
 17 18  2  0
 18 19  1  0
 16 20  1  0
 19 20  2  0
  1 21  1  1
  1 22  1  0
  1 23  1  0
  2 24  1  0
  3 25  1  1
  3 26  1  0
  4 27  1  6
  4 28  1  0
  5 29  1  1
  5 30  1  0
  8 31  1  0
  9 32  1  0
 10 33  1  0
 11 34  1  0
 13 35  1  6
 13 36  1  0
 14 37  1  1
 14 38  1  0
 17 39  1  0
 18 40  1  0
 19 41  1  0
 20 42  1  0
M  END
