7XJN_NSD_C_401
     RDKit          3D

  9  8  0  0  0  0  0  0  0  0999 V2000
  -37.1561   23.0206  -26.9232 C   0  0  0  0  0  0  0  0  0  0  0  0
  -35.7275   22.9111  -27.1457 N   0  0  0  0  0  0  0  0  0  0  0  0
  -37.6266   21.8838  -26.0287 C   0  0  0  0  0  0  0  0  0  0  0  0
  -39.5472   22.9072  -24.8900 N   0  0  0  0  0  0  0  0  0  0  0  0
  -39.1273   21.9158  -25.8567 C   0  0  0  0  0  0  0  0  0  0  0  0
  -39.0338   24.7471  -20.4111 N   0  0  0  0  0  0  0  0  0  0  0  0
  -38.9461   22.6837  -23.5881 C   0  0  0  0  0  0  0  0  0  0  0  0
  -39.3651   23.8247  -22.6829 C   0  0  0  0  0  0  0  0  0  0  0  0
  -38.7716   23.6445  -21.2882 C   0  0  0  0  0  0  0  0  0  0  0  0
  1  2  1  0
  1  3  1  0
  4  5  1  0
  3  5  1  0
  4  7  1  0
  7  8  1  0
  6  9  1  0
  8  9  1  0
M  END
$$$$
