8DSC_NCA_A_1001
     RDKit          3D

  9  9  0  0  0  0  0  0  0  0999 V2000
   13.6450    9.9480    7.7070 N   0  0  0  0  0  0  0  0  0  0  0  0
   13.8890    9.9880    6.3880 C   0  0  0  0  0  0  0  0  0  0  0  0
   15.0100    9.3780    5.8440 C   0  0  0  0  0  0  0  0  0  0  0  0
   15.9020    8.7430    6.7080 C   0  0  0  0  0  0  0  0  0  0  0  0
   15.6160    8.7070    8.0630 C   0  0  0  0  0  0  0  0  0  0  0  0
   14.4920    9.3300    8.5410 C   0  0  0  0  0  0  0  0  0  0  0  0
   15.2270    9.4380    4.3580 C   0  0  0  0  0  0  0  0  0  0  0  0
   14.3480    9.9930    3.6740 O   0  0  0  0  0  0  0  0  0  0  0  0
   16.3120    8.9030    3.8380 N   0  0  0  0  0  0  0  0  0  0  0  0
  1  2  2  0
  2  3  1  0
  3  4  2  0
  4  5  1  0
  1  6  1  0
  5  6  2  0
  3  7  1  0
  7  8  2  0
  7  9  1  0
M  END
$$$$
8DSC_NCA_B_1101
     RDKit          3D

  9  9  0  0  0  0  0  0  0  0999 V2000
    9.8300   -9.8610   36.7290 N   0  0  0  0  0  0  0  0  0  0  0  0
    9.7350   -9.8970   38.0710 C   0  0  0  0  0  0  0  0  0  0  0  0
   10.7080   -9.3370   38.8790 C   0  0  0  0  0  0  0  0  0  0  0  0
   11.7830   -8.7230   38.2210 C   0  0  0  0  0  0  0  0  0  0  0  0
   11.8290   -8.6830   36.8430 C   0  0  0  0  0  0  0  0  0  0  0  0
   10.8370   -9.2690   36.0880 C   0  0  0  0  0  0  0  0  0  0  0  0
   10.5600   -9.3950   40.3480 C   0  0  0  0  0  0  0  0  0  0  0  0
    9.5620   -9.8970   40.8560 O   0  0  0  0  0  0  0  0  0  0  0  0
   11.5090   -8.8690   41.1130 N   0  0  0  0  0  0  0  0  0  0  0  0
  1  2  2  0
  2  3  1  0
  3  4  2  0
  4  5  1  0
  1  6  1  0
  5  6  2  0
  3  7  1  0
  7  8  2  0
  7  9  1  0
M  END
$$$$
