6ZX3_QRZ_A_501
     RDKit          3D

 38 39  0  0  0  0  0  0  0  0999 V2000
    6.4670    7.8534    9.4294 C   0  0  0  0  0  0  0  0  0  0  0  0
    4.2729    4.8913   10.1204 C   0  0  0  0  0  0  0  0  0  0  0  0
    4.7176    5.8985    7.7645 O   0  0  0  0  0  0  0  0  0  0  0  0
    3.6204    4.9894    8.6803 P   0  0  2  0  0  5  0  0  0  0  0  0
    2.2579    5.6447    8.6040 O   0  0  0  0  0  0  0  0  0  0  0  0
    4.1524    4.9501   10.3013 O   0  0  0  0  0  0  0  0  0  0  0  0
    3.5630    3.4008    8.0532 O   0  0  0  0  0  0  0  0  0  0  0  0
    4.0271    3.4287    6.7228 C   0  0  0  0  0  0  0  0  0  0  0  0
    4.5867    4.8193    6.3979 C   0  0  1  0  0  0  0  0  0  0  0  0
    3.4774    5.8851    6.3487 C   0  0  2  0  0  0  0  0  0  0  0  0
    3.6454    6.6649    5.1975 O   0  0  0  0  0  0  0  0  0  0  0  0
    3.7396    6.7005    7.5979 C   0  0  2  0  0  0  0  0  0  0  0  0
    3.4228    8.0572    7.4393 O   0  0  0  0  0  0  0  0  0  0  0  0
    5.5399    5.1839    7.3797 O   0  0  0  0  0  0  0  0  0  0  0  0
    5.2311    6.5003    7.7839 C   0  0  2  0  0  0  0  0  0  0  0  0
    5.6455    6.7742    9.1865 N   0  0  0  0  0  4  0  0  0  0  0  0
    5.1496    6.0632   10.2651 C   0  0  0  0  0  0  0  0  0  0  0  0
    5.4843    6.4396   11.5686 C   0  0  0  0  0  0  0  0  0  0  0  0
    6.3135    7.5237   11.7689 C   0  0  0  0  0  0  0  0  0  0  0  0
    6.6264    7.8745   12.9389 O   0  0  0  0  0  0  0  0  0  0  0  0
    6.7974    8.2050   10.7023 N   0  0  0  0  0  4  0  0  0  0  0  0
    6.9176    8.5484    8.4757 O   0  0  0  0  0  0  0  0  0  0  0  0
    3.0263    4.9646    9.0565 S   0  0  0  0  0  0  0  0  0  0  0  0
    4.6951    3.6244   10.6330 N   0  0  0  0  0  0  0  0  0  0  0  0
    4.8616    6.7264    8.2961 H   0  0  0  0  0  0  0  0  0  0  0  0
    3.4214    5.3462   10.8314 H   0  0  0  0  0  0  0  0  0  0  0  0
    3.1834    3.2190    6.0287 H   0  0  0  0  0  0  0  0  0  0  0  0
    4.8379    2.6786    6.5586 H   0  0  0  0  0  0  0  0  0  0  0  0
    5.1065    4.7574    5.4154 H   0  0  0  0  0  0  0  0  0  0  0  0
    2.4525    5.4415    6.3746 H   0  0  0  0  0  0  0  0  0  0  0  0
    2.7759    7.1246    5.0290 H   0  0  0  0  0  0  0  0  0  0  0  0
    3.1827    6.2643    8.4550 H   0  0  0  0  0  0  0  0  0  0  0  0
    2.4419    8.1148    7.5465 H   0  0  0  0  0  0  0  0  0  0  0  0
    5.7740    7.1735    7.0770 H   0  0  0  0  0  0  0  0  0  0  0  0
    5.0785    5.9062   12.4205 H   0  0  0  0  0  0  0  0  0  0  0  0
    7.4365    9.0340   10.8608 H   0  0  0  0  0  0  0  0  0  0  0  0
    4.1292    2.7695   10.4599 H   0  0  0  0  0  0  0  0  0  0  0  0
    5.5327    3.5689   11.2517 H   0  0  0  0  0  0  0  0  0  0  0  0
  4  3  1  1
  4  5  2  0
  4  6  1  0
  4  7  1  0
  7  8  1  0
  9  8  1  0
  9 10  1  0
 10 11  1  0
 10 12  1  0
 12 13  1  0
  9 14  1  0
 14 15  1  0
 12 15  1  0
 15 16  1  0
  1 16  4  0
  2 17  1  0
 16 17  4  0
 17 18  4  0
 18 19  4  0
 19 20  2  0
 19 21  4  0
  1 21  4  0
  1 22  2  0
  2 23  2  0
  2 24  1  0
  3 25  1  0
  6 26  1  0
  8 27  1  0
  8 28  1  0
  9 29  1  1
 10 30  1  6
 11 31  1  0
 12 32  1  6
 13 33  1  0
 15 34  1  1
 18 35  1  0
 21 36  1  0
 24 37  1  0
 24 38  1  0
M  CHG  2  16   1  21   1
M  END
