6YT6_PKE_A_701
     RDKit          3D

 52 55  0  0  0  0  0  0  0  0999 V2000
   -0.0312    2.2724   -2.9212 C   0  0  0  0  0  0  0  0  0  0  0  0
    0.3587   -2.1620   -0.8013 C   0  0  1  0  0  0  0  0  0  0  0  0
    0.8309   -1.6452    0.5399 C   0  0  0  0  0  0  0  0  0  0  0  0
   -0.1041   -1.0710    1.4172 C   0  0  0  0  0  0  0  0  0  0  0  0
    0.3038   -0.5576    2.6473 C   0  0  0  0  0  0  0  0  0  0  0  0
    1.6485   -0.6252    3.0027 C   0  0  0  0  0  0  0  0  0  0  0  0
    2.1826   -1.7197    0.9555 C   0  0  0  0  0  0  0  0  0  0  0  0
    3.9423   -2.5234   -2.6511 C   0  0  2  0  0  0  0  0  0  0  0  0
   -0.2611    3.8699   -4.8789 C   0  0  0  0  0  0  0  0  0  0  0  0
   -0.5310    5.6759   -6.5145 C   0  0  0  0  0  0  0  0  0  0  0  0
   -2.2428    3.9875   -6.2537 C   0  0  0  0  0  0  0  0  0  0  0  0
    0.4820    1.0176   -2.8255 N   0  0  0  0  0  0  0  0  0  0  0  0
   -1.0850    2.6286   -2.1383 N   0  0  0  0  0  0  0  0  0  0  0  0
   -1.6211    1.7560   -1.2478 C   0  0  0  0  0  0  0  0  0  0  0  0
   -1.0958    0.4706   -1.1279 C   0  0  0  0  0  0  0  0  0  0  0  0
   -0.0116    0.1093   -1.9421 C   0  0  0  0  0  0  0  0  0  0  0  0
    0.6003   -1.1894   -1.8681 N   0  0  0  0  0  0  0  0  0  0  0  0
    0.5156    3.1873   -3.8808 N   0  0  0  0  0  0  0  0  0  0  0  0
    2.5454   -1.1989    2.1604 N   0  0  0  0  0  0  0  0  0  0  0  0
    3.1949   -2.3124    0.1315 N   0  0  0  0  0  0  0  0  0  0  0  0
    3.7563   -1.4315   -1.2567 S   0  0  2  0  0  6  0  0  0  0  0  0
    3.9884   -3.4237    0.6531 C   0  0  1  0  0  0  0  0  0  0  0  0
    2.7564   -0.3679   -1.6157 O   0  0  0  0  0  0  0  0  0  0  0  0
    5.0749   -0.7843   -0.9413 O   0  0  0  0  0  0  0  0  0  0  0  0
   -1.5053    3.3330   -5.2678 C   0  0  0  0  0  0  0  0  0  0  0  0
    0.2283    5.0347   -5.5224 C   0  0  0  0  0  0  0  0  0  0  0  0
   -1.7660    5.1314   -6.8567 C   0  0  0  0  0  0  0  0  0  0  0  0
   -3.5774    3.6114   -6.8131 C   0  0  2  0  0  0  0  0  0  0  0  0
   -3.7562    4.7181   -7.8101 C   0  0  0  0  0  0  0  0  0  0  0  0
   -2.6625    5.6291   -7.8316 N   0  0  0  0  0  0  0  0  0  0  0  0
   -4.7624    4.8408   -8.5566 O   0  0  0  0  0  0  0  0  0  0  0  0
    0.8941   -3.1070   -1.0280 H   0  0  0  0  0  0  0  0  0  0  0  0
   -0.7239   -2.4134   -0.7825 H   0  0  0  0  0  0  0  0  0  0  0  0
   -1.1502   -1.0080    1.1444 H   0  0  0  0  0  0  0  0  0  0  0  0
   -0.4165   -0.1068    3.3177 H   0  0  0  0  0  0  0  0  0  0  0  0
    1.9806   -0.2256    3.9515 H   0  0  0  0  0  0  0  0  0  0  0  0
    2.9916   -3.0624   -2.8348 H   0  0  0  0  0  0  0  0  0  0  0  0
    4.7465   -3.2594   -2.4477 H   0  0  0  0  0  0  0  0  0  0  0  0
    4.2092   -1.9326   -3.5513 H   0  0  0  0  0  0  0  0  0  0  0  0
   -0.1601    6.5648   -7.0082 H   0  0  0  0  0  0  0  0  0  0  0  0
   -2.4589    2.0599   -0.6344 H   0  0  0  0  0  0  0  0  0  0  0  0
   -1.5371   -0.2187   -0.4227 H   0  0  0  0  0  0  0  0  0  0  0  0
    1.2923   -1.4454   -2.6080 H   0  0  0  0  0  0  0  0  0  0  0  0
    1.5537    3.3095   -3.8949 H   0  0  0  0  0  0  0  0  0  0  0  0
    3.7310   -4.3596    0.1203 H   0  0  0  0  0  0  0  0  0  0  0  0
    5.0731   -3.2340    0.5171 H   0  0  0  0  0  0  0  0  0  0  0  0
    3.7956   -3.5531    1.7394 H   0  0  0  0  0  0  0  0  0  0  0  0
   -1.8910    2.4331   -4.8055 H   0  0  0  0  0  0  0  0  0  0  0  0
    1.2047    5.4309   -5.2778 H   0  0  0  0  0  0  0  0  0  0  0  0
   -4.3634    3.6492   -6.0299 H   0  0  0  0  0  0  0  0  0  0  0  0
   -3.5347    2.6232   -7.3174 H   0  0  0  0  0  0  0  0  0  0  0  0
   -2.5475    6.4737   -8.4345 H   0  0  0  0  0  0  0  0  0  0  0  0
  2  3  1  0
  3  4  2  0
  4  5  1  0
  5  6  2  0
  3  7  1  0
  1 12  2  0
  1 13  1  0
 13 14  2  0
 14 15  1  0
 15 16  2  0
 12 16  1  0
 16 17  1  0
  2 17  1  0
  1 18  1  0
  9 18  1  0
  6 19  1  0
  7 19  2  0
  7 20  1  0
 21 20  1  1
  8 21  1  0
 20 22  1  0
 21 23  2  0
 21 24  2  0
  9 25  2  0
 11 25  1  0
  9 26  1  0
 10 26  2  0
 11 27  2  0
 10 27  1  0
 11 28  1  0
 28 29  1  0
 27 30  1  0
 29 30  1  0
 29 31  2  0
  2 32  1  6
  2 33  1  0
  4 34  1  0
  5 35  1  0
  6 36  1  0
  8 37  1  6
  8 38  1  0
  8 39  1  0
 10 40  1  0
 14 41  1  0
 15 42  1  0
 17 43  1  0
 18 44  1  0
 22 45  1  6
 22 46  1  0
 22 47  1  0
 25 48  1  0
 26 49  1  0
 28 50  1  1
 28 51  1  0
 30 52  1  0
M  END
