7WCF_ACP_A_401
     RDKit          3D

 49 51  0  0  0  0  0  0  0  0999 V2000
    3.0843  -17.0351  -18.5987 P   0  0  2  0  0  5  0  0  0  0  0  0
    1.5958  -17.2729  -18.6340 O   0  0  0  0  0  0  0  0  0  0  0  0
    3.6116  -17.0755  -17.1912 O   0  0  0  0  0  0  0  0  0  0  0  0
    3.3232  -15.7486  -19.3244 O   0  0  0  0  0  0  0  0  0  0  0  0
    4.4093  -17.6284  -21.2763 P   0  0  1  0  0  5  0  0  0  0  0  0
    3.5518  -16.3955  -21.3678 O   0  0  0  0  0  0  0  0  0  0  0  0
    5.8924  -17.4104  -21.3816 O   0  0  0  0  0  0  0  0  0  0  0  0
    3.8421  -18.2577  -19.6951 C   0  0  0  0  0  0  0  0  0  0  0  0
    4.8514  -19.0111  -23.8741 P   0  0  1  0  0  5  0  0  0  0  0  0
    5.4506  -20.3893  -23.8308 O   0  0  0  0  0  0  0  0  0  0  0  0
    4.0174  -18.7366  -25.0876 O   0  0  0  0  0  0  0  0  0  0  0  0
    4.0930  -18.6814  -22.4644 O   0  0  0  0  0  0  0  0  0  0  0  0
    6.0449  -17.9149  -23.8587 O   0  0  0  0  0  0  0  0  0  0  0  0
    7.3662  -18.3562  -23.6433 C   0  0  0  0  0  0  0  0  0  0  0  0
    7.2690  -19.7602  -23.0047 C   0  0  2  0  0  0  0  0  0  0  0  0
    8.0039  -19.8075  -21.8953 O   0  0  0  0  0  0  0  0  0  0  0  0
    7.8501  -20.8412  -23.9462 C   0  0  2  0  0  0  0  0  0  0  0  0
    6.9717  -21.3058  -24.9086 O   0  0  0  0  0  0  0  0  0  0  0  0
    8.2447  -21.9115  -22.9164 C   0  0  2  0  0  0  0  0  0  0  0  0
    7.0034  -22.6575  -22.5523 O   0  0  0  0  0  0  0  0  0  0  0  0
    8.7071  -21.2397  -21.8608 C   0  0  1  0  0  0  0  0  0  0  0  0
   10.1360  -20.9885  -21.8833 N   0  0  0  0  0  4  0  0  0  0  0  0
   10.7833  -19.9332  -22.4210 C   0  0  0  0  0  0  0  0  0  0  0  0
   12.0950  -20.0832  -22.2268 N   0  0  0  0  0  0  0  0  0  0  0  0
   12.2722  -21.2335  -21.5441 C   0  0  0  0  0  0  0  0  0  0  0  0
   13.4011  -21.8557  -21.0538 C   0  0  0  0  0  0  0  0  0  0  0  0
   14.7421  -21.3568  -21.2019 N   0  0  0  0  0  0  0  0  0  0  0  0
   13.2858  -23.0027  -20.3922 N   0  0  0  0  0  0  0  0  0  0  0  0
   12.0653  -23.5382  -20.1942 C   0  0  0  0  0  0  0  0  0  0  0  0
   10.9472  -22.9385  -20.6578 N   0  0  0  0  0  0  0  0  0  0  0  0
   11.0650  -21.7711  -21.3199 C   0  0  0  0  0  0  0  0  0  0  0  0
    3.1655  -16.3981  -16.6592 H   0  0  0  0  0  0  0  0  0  0  0  0
    2.9489  -15.0144  -18.8126 H   0  0  0  0  0  0  0  0  0  0  0  0
    6.1763  -16.7835  -20.6981 H   0  0  0  0  0  0  0  0  0  0  0  0
    4.6839  -18.6797  -19.1868 H   0  0  0  0  0  0  0  0  0  0  0  0
    3.0741  -18.9681  -19.9194 H   0  0  0  0  0  0  0  0  0  0  0  0
    3.2893  -19.3760  -25.1309 H   0  0  0  0  0  0  0  0  0  0  0  0
    7.8928  -18.4100  -24.5733 H   0  0  0  0  0  0  0  0  0  0  0  0
    7.8980  -17.6806  -23.0064 H   0  0  0  0  0  0  0  0  0  0  0  0
    6.2332  -19.9422  -22.8073 H   0  0  0  0  0  0  0  0  0  0  0  0
    8.6491  -20.4879  -24.5640 H   0  0  0  0  0  0  0  0  0  0  0  0
    6.1800  -21.6643  -24.4777 H   0  0  0  0  0  0  0  0  0  0  0  0
    8.9769  -22.6034  -23.2770 H   0  0  0  0  0  0  0  0  0  0  0  0
    6.3361  -22.0345  -22.2247 H   0  0  0  0  0  0  0  0  0  0  0  0
    8.5005  -21.8326  -20.9944 H   0  0  0  0  0  0  0  0  0  0  0  0
   10.3361  -19.1386  -22.9042 H   0  0  0  0  0  0  0  0  0  0  0  0
   14.9030  -20.5119  -21.6811 H   0  0  0  0  0  0  0  0  0  0  0  0
   15.4991  -21.8602  -20.8242 H   0  0  0  0  0  0  0  0  0  0  0  0
   11.9827  -24.4271  -19.6763 H   0  0  0  0  0  0  0  0  0  0  0  0
  1  2  2  0
  1  3  1  6
  1  4  1  0
  5  6  2  0
  5  7  1  6
  1  8  1  0
  5  8  1  0
  9 10  2  0
  9 11  1  1
  5 12  1  0
  9 12  1  0
  9 13  1  0
 13 14  1  0
 15 14  1  0
 15 16  1  0
 15 17  1  0
 17 18  1  0
 17 19  1  0
 19 20  1  0
 16 21  1  0
 19 21  1  0
 21 22  1  0
 22 23  4  0
 23 24  4  0
 24 25  4  0
 25 26  4  0
 26 27  1  0
 26 28  4  0
 28 29  4  0
 29 30  4  0
 22 31  4  0
 25 31  4  0
 30 31  4  0
  3 32  1  0
  4 33  1  0
  7 34  1  0
  8 35  1  0
  8 36  1  0
 11 37  1  0
 14 38  1  0
 14 39  1  0
 15 40  1  6
 17 41  1  1
 18 42  1  0
 19 43  1  1
 20 44  1  0
 21 45  1  6
 23 46  1  0
 27 47  1  0
 27 48  1  0
 29 49  1  0
M  CHG  1  22   1
M  END
