7LCU_XTA_A_605
     RDKit          3D

 71 75  0  0  0  0  0  0  0  0999 V2000
   -3.1576   -0.7324   -1.3674 C   0  0  0  0  0  0  0  0  0  0  0  0
   -2.5661    0.1143   -0.4313 C   0  0  0  0  0  0  0  0  0  0  0  0
   -1.0488    2.0878   -0.3532 C   0  0  0  0  0  0  0  0  0  0  0  0
    0.0800    1.4063    0.1265 C   0  0  0  0  0  0  0  0  0  0  0  0
    1.2035    2.1301    0.5455 C   0  0  0  0  0  0  0  0  0  0  0  0
    2.4054    1.3996    1.0876 C   0  0  0  0  0  0  0  0  0  0  0  0
    3.8228   -0.5490    0.7540 C   0  0  0  0  0  0  0  0  0  0  0  0
    4.0971   -1.7455   -0.1782 C   0  0  0  0  0  0  0  0  0  0  0  0
    3.8338   -1.4078   -1.6656 C   0  0  0  0  0  0  0  0  0  0  0  0
    4.5463   -2.3945   -2.6116 C   0  0  0  0  0  0  0  0  0  0  0  0
    4.0269   -3.7912   -2.4471 C   0  0  0  0  0  0  0  0  0  0  0  0
    4.2670    0.0396   -1.9604 C   0  0  0  0  0  0  0  0  0  0  0  0
    3.5274    1.0498   -1.0527 C   0  0  0  0  0  0  0  0  0  0  0  0
    1.1888    3.5289    0.4671 C   0  0  0  0  0  0  0  0  0  0  0  0
    0.0546    4.1845   -0.0419 C   0  0  0  0  0  0  0  0  0  0  0  0
   -0.0021    5.6619   -0.1635 C   0  0  0  0  0  0  0  0  0  0  0  0
    1.1517    6.4188   -0.4459 C   0  0  0  0  0  0  0  0  0  0  0  0
    1.0683    7.8079   -0.5922 C   0  0  0  0  0  0  0  0  0  0  0  0
   -0.1656    8.4547   -0.4665 C   0  0  0  0  0  0  0  0  0  0  0  0
   -2.0436   -6.6491    1.7269 C   0  0  0  0  0  0  0  0  0  0  0  0
   -3.5459   -6.1664   -0.1483 C   0  0  0  0  0  0  0  0  0  0  0  0
   -4.1239   -4.7653   -0.4208 C   0  0  0  0  0  0  0  0  0  0  0  0
   -3.8104   -4.1693    2.0174 C   0  0  0  0  0  0  0  0  0  0  0  0
   -4.2180   -5.6391    2.1822 C   0  0  0  0  0  0  0  0  0  0  0  0
   -3.3128   -2.4596    0.2484 C   0  0  0  0  0  0  0  0  0  0  0  0
   -1.3165    7.7139   -0.1909 C   0  0  0  0  0  0  0  0  0  0  0  0
   -1.2375    6.3251   -0.0439 C   0  0  0  0  0  0  0  0  0  0  0  0
   -2.4069   -0.3608    0.8776 C   0  0  0  0  0  0  0  0  0  0  0  0
   -3.4458   -6.5257    1.2907 N   0  0  0  0  0  0  0  0  0  0  0  0
   -3.6843   -3.8078    0.6008 N   0  0  0  0  0  0  0  0  0  0  0  0
   -3.5076   -1.9968   -1.0165 N   0  0  0  0  0  0  0  0  0  0  0  0
    2.8873    0.3974    0.1157 N   0  0  0  0  0  0  0  0  0  0  0  0
   -1.0227    3.4445   -0.4287 N   0  0  0  0  0  0  0  0  0  0  0  0
   -2.7780   -1.6294    1.1874 N   0  0  0  0  0  0  0  0  0  0  0  0
   -2.1888    1.4101   -0.8096 O   0  0  0  0  0  0  0  0  0  0  0  0
    2.7040   -4.0826   -2.7711 O   0  0  0  0  0  0  0  0  0  0  0  0
    4.7822   -4.6993   -2.0079 O   0  0  0  0  0  0  0  0  0  0  0  0
    2.5088    8.7379   -0.9642 Cl  0  0  0  0  0  0  0  0  0  0  0  0
   -2.8670    8.5248   -0.0482 Cl  0  0  0  0  0  0  0  0  0  0  0  0
   -3.3201   -0.3927   -2.3817 H   0  0  0  0  0  0  0  0  0  0  0  0
    0.1020    0.3246    0.1548 H   0  0  0  0  0  0  0  0  0  0  0  0
    2.0756    0.8975    2.0256 H   0  0  0  0  0  0  0  0  0  0  0  0
    3.2222    2.1057    1.3671 H   0  0  0  0  0  0  0  0  0  0  0  0
    3.3982   -0.9418    1.7047 H   0  0  0  0  0  0  0  0  0  0  0  0
    4.7812   -0.0355    1.0015 H   0  0  0  0  0  0  0  0  0  0  0  0
    5.1515   -2.0714   -0.0337 H   0  0  0  0  0  0  0  0  0  0  0  0
    3.4421   -2.5965    0.1140 H   0  0  0  0  0  0  0  0  0  0  0  0
    2.7365   -1.4738   -1.8544 H   0  0  0  0  0  0  0  0  0  0  0  0
    5.6444   -2.3724   -2.4313 H   0  0  0  0  0  0  0  0  0  0  0  0
    4.3734   -2.0889   -3.6660 H   0  0  0  0  0  0  0  0  0  0  0  0
    4.0683    0.2897   -3.0265 H   0  0  0  0  0  0  0  0  0  0  0  0
    5.3645    0.1326   -1.7930 H   0  0  0  0  0  0  0  0  0  0  0  0
    4.2490    1.8331   -0.7267 H   0  0  0  0  0  0  0  0  0  0  0  0
    2.7398    1.5510   -1.6577 H   0  0  0  0  0  0  0  0  0  0  0  0
    2.0452    4.0936    0.8124 H   0  0  0  0  0  0  0  0  0  0  0  0
    2.1098    5.9359   -0.5868 H   0  0  0  0  0  0  0  0  0  0  0  0
   -0.2268    9.5292   -0.5856 H   0  0  0  0  0  0  0  0  0  0  0  0
   -1.5427   -7.4668    1.1643 H   0  0  0  0  0  0  0  0  0  0  0  0
   -1.9906   -6.9152    2.8032 H   0  0  0  0  0  0  0  0  0  0  0  0
   -1.4814   -5.7062    1.5540 H   0  0  0  0  0  0  0  0  0  0  0  0
   -2.5586   -6.2415   -0.6572 H   0  0  0  0  0  0  0  0  0  0  0  0
   -4.1987   -6.9110   -0.6474 H   0  0  0  0  0  0  0  0  0  0  0  0
   -5.2341   -4.8086   -0.4142 H   0  0  0  0  0  0  0  0  0  0  0  0
   -3.8068   -4.4480   -1.4372 H   0  0  0  0  0  0  0  0  0  0  0  0
   -4.5799   -3.5261    2.4962 H   0  0  0  0  0  0  0  0  0  0  0  0
   -2.8431   -3.9923    2.5363 H   0  0  0  0  0  0  0  0  0  0  0  0
   -5.2995   -5.7474    1.9504 H   0  0  0  0  0  0  0  0  0  0  0  0
   -4.0945   -5.9449    3.2444 H   0  0  0  0  0  0  0  0  0  0  0  0
   -2.1408    5.7660    0.1692 H   0  0  0  0  0  0  0  0  0  0  0  0
   -1.9966    0.2760    1.6510 H   0  0  0  0  0  0  0  0  0  0  0  0
    2.3443   -5.0265   -2.6812 H   0  0  0  0  0  0  0  0  0  0  0  0
  1  2  2  0
  3  4  2  0
  4  5  1  0
  5  6  1  0
  7  8  1  0
  8  9  1  0
  9 10  1  0
 10 11  1  0
  9 12  1  0
 12 13  1  0
  5 14  2  0
 14 15  1  0
 15 16  1  0
 16 17  2  0
 17 18  1  0
 18 19  2  0
 21 22  1  0
 23 24  1  0
 19 26  1  0
 26 27  2  0
 16 27  1  0
  2 28  1  0
 21 29  1  0
 24 29  1  0
 20 29  1  0
 25 30  1  0
 22 30  1  0
 23 30  1  0
  1 31  1  0
 25 31  2  0
  7 32  1  0
 13 32  1  0
  6 32  1  0
 15 33  2  0
  3 33  1  0
 28 34  2  0
 25 34  1  0
  3 35  1  0
  2 35  1  0
 11 36  1  0
 11 37  2  0
 18 38  1  0
 26 39  1  0
  1 40  1  0
  4 41  1  0
  6 42  1  0
  6 43  1  0
  7 44  1  0
  7 45  1  0
  8 46  1  0
  8 47  1  0
  9 48  1  0
 10 49  1  0
 10 50  1  0
 12 51  1  0
 12 52  1  0
 13 53  1  0
 13 54  1  0
 14 55  1  0
 17 56  1  0
 19 57  1  0
 20 58  1  0
 20 59  1  0
 20 60  1  0
 21 61  1  0
 21 62  1  0
 22 63  1  0
 22 64  1  0
 23 65  1  0
 23 66  1  0
 24 67  1  0
 24 68  1  0
 27 69  1  0
 28 70  1  0
 36 71  1  0
M  END
