7EN7_J79_A_301
     RDKit          3D

 44 44  0  0  0  0  0  0  0  0999 V2000
    2.0672  -11.5079   -9.2333 C   0  0  1  0  0  0  0  0  0  0  0  0
    1.3575  -12.5717   -8.3797 C   0  0  1  0  0  0  0  0  0  0  0  0
    2.9778  -14.1823   -7.8163 C   0  0  2  0  0  0  0  0  0  0  0  0
    4.0233  -14.9497   -8.6208 C   0  0  1  0  0  0  0  0  0  0  0  0
    2.4872  -15.0374   -6.6828 C   0  0  0  0  0  0  0  0  0  0  0  0
   -0.1315  -12.5727   -8.7387 C   0  0  2  0  0  0  0  0  0  0  0  0
   -2.1692  -14.0291   -8.2855 C   0  0  0  0  0  0  0  0  0  0  0  0
   -2.8663  -15.0074   -7.3977 C   0  0  1  0  0  0  0  0  0  0  0  0
   -0.7560  -11.1829   -8.4549 C   0  0  2  0  0  0  0  0  0  0  0  0
    1.2588  -10.1732   -9.2803 C   0  0  1  0  0  0  0  0  0  0  0  0
    0.8293   -9.7509  -10.7017 C   0  0  2  0  0  0  0  0  0  0  0  0
   -0.8357  -13.6056   -7.9713 N   0  0  0  0  0  0  0  0  0  0  0  0
    3.3488  -11.2804   -8.7042 O   0  0  0  0  0  0  0  0  0  0  0  0
    1.8992  -13.8524   -8.6738 O   0  0  0  0  0  0  0  0  0  0  0  0
    2.3401  -14.5401   -5.5345 O   0  0  0  0  0  0  0  0  0  0  0  0
    2.2039  -16.3830   -6.8981 O   0  0  0  0  0  0  0  0  0  0  0  0
   -2.7678  -13.5669   -9.2943 O   0  0  0  0  0  0  0  0  0  0  0  0
   -1.7318  -10.8821   -9.4173 O   0  0  0  0  0  0  0  0  0  0  0  0
    0.1857  -10.1197   -8.3482 O   0  0  0  0  0  0  0  0  0  0  0  0
    0.8243  -10.8548  -11.5762 O   0  0  0  0  0  0  0  0  0  0  0  0
    0.8697   -9.4743  -13.9991 O   0  0  0  0  0  0  0  0  0  0  0  0
   -0.5002  -11.8581  -13.7828 O   0  0  0  0  0  0  0  0  0  0  0  0
   -1.3214   -9.6945  -12.5755 O   0  0  0  0  0  0  0  0  0  0  0  0
   -0.0657  -10.4400  -12.9695 P   0  0  1  0  0  5  0  0  0  0  0  0
    2.1762  -11.9214  -10.2644 H   0  0  0  0  0  0  0  0  0  0  0  0
    1.4406  -12.2956   -7.2984 H   0  0  0  0  0  0  0  0  0  0  0  0
    3.4881  -13.2755   -7.4133 H   0  0  0  0  0  0  0  0  0  0  0  0
    4.1572  -14.4931   -9.6253 H   0  0  0  0  0  0  0  0  0  0  0  0
    4.9974  -14.9241   -8.0876 H   0  0  0  0  0  0  0  0  0  0  0  0
    3.7158  -16.0108   -8.7413 H   0  0  0  0  0  0  0  0  0  0  0  0
   -0.2125  -12.8056   -9.8241 H   0  0  0  0  0  0  0  0  0  0  0  0
   -2.7739  -14.6830   -6.3401 H   0  0  0  0  0  0  0  0  0  0  0  0
   -3.9406  -15.0556   -7.6726 H   0  0  0  0  0  0  0  0  0  0  0  0
   -2.4191  -16.0188   -7.5028 H   0  0  0  0  0  0  0  0  0  0  0  0
   -1.2629  -11.2402   -7.4644 H   0  0  0  0  0  0  0  0  0  0  0  0
    1.9526   -9.3658   -8.9559 H   0  0  0  0  0  0  0  0  0  0  0  0
    1.5538   -8.9854  -11.0627 H   0  0  0  0  0  0  0  0  0  0  0  0
   -0.1811   -9.2864  -10.6321 H   0  0  0  0  0  0  0  0  0  0  0  0
   -0.4102  -13.9422   -7.0774 H   0  0  0  0  0  0  0  0  0  0  0  0
    3.7930  -10.6227   -9.3011 H   0  0  0  0  0  0  0  0  0  0  0  0
    1.2844  -16.6780   -7.2038 H   0  0  0  0  0  0  0  0  0  0  0  0
   -1.7099   -9.8979   -9.5447 H   0  0  0  0  0  0  0  0  0  0  0  0
    0.4740   -8.5694  -13.9254 H   0  0  0  0  0  0  0  0  0  0  0  0
   -0.1082  -12.5881  -13.2404 H   0  0  0  0  0  0  0  0  0  0  0  0
  1  2  1  0
  3  4  1  0
  3  5  1  0
  2  6  1  0
  7  8  1  0
  6  9  1  0
  1 10  1  0
 10 11  1  0
  6 12  1  0
  7 12  1  0
  1 13  1  0
  3 14  1  0
  2 14  1  0
  5 15  2  0
  5 16  1  0
  7 17  2  0
  9 18  1  0
 10 19  1  0
  9 19  1  0
 11 20  1  0
 23 24  2  0
 24 21  1  6
 20 24  1  0
 22 24  1  0
  1 25  1  6
  2 26  1  1
  3 27  1  1
  4 28  1  6
  4 29  1  0
  4 30  1  0
  6 31  1  6
  8 32  1  1
  8 33  1  0
  8 34  1  0
  9 35  1  1
 10 36  1  1
 11 37  1  6
 11 38  1  0
 12 39  1  0
 13 40  1  0
 16 41  1  0
 18 42  1  0
 21 43  1  0
 22 44  1  0
M  END
