8F8E_XJI_A_1401
     RDKit          3D

 29 31  0  0  0  0  0  0  0  0999 V2000
  -23.8170  -17.1970    2.0350 N   0  0  0  0  0  0  0  0  0  0  0  0
  -25.1880  -17.0910   -2.8090 C   0  0  0  0  0  0  0  0  0  0  0  0
  -25.9760  -17.4790   -1.7590 C   0  0  0  0  0  0  0  0  0  0  0  0
  -20.8970  -20.6630    0.9280 N   0  0  0  0  0  0  0  0  0  0  0  0
  -25.3920  -17.7200   -0.5320 C   0  0  0  0  0  0  0  0  0  0  0  0
  -18.1730  -20.4330   -0.9590 O   0  0  0  0  0  0  0  0  0  0  0  0
  -22.4370  -18.8510    1.2820 C   0  0  0  0  0  0  0  0  0  0  0  0
  -23.2790  -17.1610   -1.4390 C   0  0  0  0  0  0  0  0  0  0  0  0
  -23.8270  -16.9180   -2.6750 C   0  0  0  0  0  0  0  0  0  0  0  0
  -17.6000  -20.2730    1.2110 N   0  0  0  0  0  0  0  0  0  0  0  0
  -24.0220  -17.5760   -0.3480 C   0  0  0  0  0  0  0  0  0  0  0  0
  -23.4230  -17.8890    0.9540 C   0  0  0  0  0  0  0  0  0  0  0  0
  -22.2380  -18.6850    2.6330 C   0  0  0  0  0  0  0  0  0  0  0  0
  -18.1650  -20.8860    0.1840 C   0  0  0  0  0  0  0  0  0  0  0  0
  -18.9680  -22.1150    0.5140 C   0  0  0  0  0  0  0  0  0  0  0  0
  -20.4370  -21.8540    0.2100 C   0  0  1  0  0  0  0  0  0  0  0  0
  -21.2160  -23.1000    0.5450 C   0  0  0  0  0  0  0  0  0  0  0  0
  -21.2150  -24.1750   -0.3370 C   0  0  0  0  0  0  0  0  0  0  0  0
  -21.7910  -25.3860    0.0110 C   0  0  0  0  0  0  0  0  0  0  0  0
  -22.3550  -25.5140    1.2510 C   0  0  0  0  0  0  0  0  0  0  0  0
  -22.7950  -26.7350    1.6480 F   0  0  0  0  0  0  0  0  0  0  0  0
  -22.3980  -24.4450    2.1370 C   0  0  0  0  0  0  0  0  0  0  0  0
  -23.1690  -24.5990    3.6790 Cl  0  0  0  0  0  0  0  0  0  0  0  0
  -21.8340  -23.2400    1.7790 C   0  0  0  0  0  0  0  0  0  0  0  0
  -21.8360  -19.8720    0.3960 C   0  0  0  0  0  0  0  0  0  0  0  0
  -22.2150  -19.9940   -0.7570 O   0  0  0  0  0  0  0  0  0  0  0  0
  -23.0640  -17.7100    3.0330 N   0  0  0  0  0  0  0  0  0  0  0  0
  -25.9250  -16.8140   -4.3540 Cl  0  0  0  0  0  0  0  0  0  0  0  0
  -21.9540  -16.9960   -1.2970 F   0  0  0  0  0  0  0  0  0  0  0  0
  2  3  2  0
  3  5  1  0
  2  9  1  0
  8  9  2  0
  8 11  1  0
  5 11  2  0
 11 12  1  0
  7 12  1  0
  1 12  2  0
  7 13  2  0
  6 14  2  0
 10 14  1  0
 14 15  1  0
 16 15  1  1
  4 16  1  0
 16 17  1  0
 17 18  2  0
 18 19  1  0
 19 20  2  0
 20 21  1  0
 20 22  1  0
 22 23  1  0
 17 24  1  0
 22 24  2  0
  4 25  1  0
  7 25  1  0
 25 26  2  0
  1 27  1  0
 13 27  1  0
  2 28  1  0
  8 29  1  0
M  END
$$$$
