7AA0_R6B_BBB_201
     RDKit          3D

 53 55  0  0  0  0  0  0  0  0999 V2000
    7.0733  -12.6179   13.6772 C   0  0  0  0  0  0  0  0  0  0  0  0
    8.7846  -13.3342   11.9853 C   0  0  1  0  0  0  0  0  0  0  0  0
    5.7427  -13.0989   13.7969 C   0  0  0  0  0  0  0  0  0  0  0  0
    5.2638  -13.5025   15.0565 C   0  0  0  0  0  0  0  0  0  0  0  0
    3.0803  -11.6449   12.0324 C   0  0  2  0  0  0  0  0  0  0  0  0
    7.6872  -12.2927   12.3019 C   0  0  1  0  0  0  0  0  0  0  0  0
    6.6226  -12.3111   11.1639 C   0  0  1  0  0  0  0  0  0  0  0  0
    5.6049  -13.4307   11.3467 C   0  0  2  0  0  0  0  0  0  0  0  0
    3.4532  -12.9905   12.6688 C   0  0  1  0  0  0  0  0  0  0  0  0
    2.6994  -14.1503   12.0120 C   0  0  1  0  0  0  0  0  0  0  0  0
    8.3255  -10.8842   12.3179 C   0  0  1  0  0  0  0  0  0  0  0  0
    4.9136  -13.2226   12.6206 N   0  0  0  0  0  0  0  0  0  0  0  0
    7.8677  -12.5261   14.8409 C   0  0  0  0  0  0  0  0  0  0  0  0
    6.0603  -13.3879   16.1934 C   0  0  0  0  0  0  0  0  0  0  0  0
    7.3675  -12.8945   16.0999 C   0  0  0  0  0  0  0  0  0  0  0  0
    8.2191  -12.7889   17.3122 C   0  0  0  0  0  0  0  0  0  0  0  0
    7.6911  -12.2865   18.5133 C   0  0  0  0  0  0  0  0  0  0  0  0
    8.4918  -12.1867   19.6541 C   0  0  0  0  0  0  0  0  0  0  0  0
    9.8395  -12.5774   19.6201 C   0  0  0  0  0  0  0  0  0  0  0  0
   10.3647  -13.0980   18.4216 C   0  0  0  0  0  0  0  0  0  0  0  0
    9.5633  -13.1976   17.2806 C   0  0  0  0  0  0  0  0  0  0  0  0
   10.6447  -12.4608   20.8611 C   0  0  0  0  0  0  0  0  0  0  0  0
   11.4428  -13.4330   21.3254 C   0  0  0  0  0  0  0  0  0  0  0  0
   12.2372  -13.2777   22.5553 C   0  0  0  0  0  0  0  0  0  0  0  0
   11.8039  -13.8909   23.7262 O   0  0  0  0  0  0  0  0  0  0  0  0
   13.2995  -12.5980   22.5623 O   0  0  0  0  0  0  0  0  0  0  0  0
    9.4591  -13.4816   12.8555 H   0  0  0  0  0  0  0  0  0  0  0  0
    8.3363  -14.3181   11.7329 H   0  0  0  0  0  0  0  0  0  0  0  0
    9.4097  -13.0019   11.1285 H   0  0  0  0  0  0  0  0  0  0  0  0
    4.2824  -13.9434   15.1643 H   0  0  0  0  0  0  0  0  0  0  0  0
    3.9994  -11.0508   11.8425 H   0  0  0  0  0  0  0  0  0  0  0  0
    2.4301  -11.0675   12.7239 H   0  0  0  0  0  0  0  0  0  0  0  0
    2.5333  -11.7789   11.0766 H   0  0  0  0  0  0  0  0  0  0  0  0
    6.0622  -11.3493   11.1491 H   0  0  0  0  0  0  0  0  0  0  0  0
    7.1074  -12.4127   10.1678 H   0  0  0  0  0  0  0  0  0  0  0  0
    6.1074  -14.4210   11.3542 H   0  0  0  0  0  0  0  0  0  0  0  0
    4.9008  -13.4296   10.4897 H   0  0  0  0  0  0  0  0  0  0  0  0
    3.1062  -12.9254   13.7209 H   0  0  0  0  0  0  0  0  0  0  0  0
    1.6205  -13.9013   11.9228 H   0  0  0  0  0  0  0  0  0  0  0  0
    3.0981  -14.3659   10.9988 H   0  0  0  0  0  0  0  0  0  0  0  0
    2.7976  -15.0630   12.6373 H   0  0  0  0  0  0  0  0  0  0  0  0
    7.5366  -10.1011   12.3101 H   0  0  0  0  0  0  0  0  0  0  0  0
    8.9647  -10.7272   13.2110 H   0  0  0  0  0  0  0  0  0  0  0  0
    8.9704  -10.7390   11.4240 H   0  0  0  0  0  0  0  0  0  0  0  0
    8.8855  -12.1687   14.7704 H   0  0  0  0  0  0  0  0  0  0  0  0
    5.6633  -13.7186   17.1452 H   0  0  0  0  0  0  0  0  0  0  0  0
    6.6616  -11.9550   18.5664 H   0  0  0  0  0  0  0  0  0  0  0  0
    8.0590  -11.7910   20.5651 H   0  0  0  0  0  0  0  0  0  0  0  0
   11.3829  -13.4560   18.3622 H   0  0  0  0  0  0  0  0  0  0  0  0
    9.9898  -13.6186   16.3785 H   0  0  0  0  0  0  0  0  0  0  0  0
   10.6080  -11.5154   21.3905 H   0  0  0  0  0  0  0  0  0  0  0  0
   11.5486  -14.3647   20.7878 H   0  0  0  0  0  0  0  0  0  0  0  0
   10.9655  -14.4597   23.7356 H   0  0  0  0  0  0  0  0  0  0  0  0
  1  3  1  0
  3  4  2  0
  6  1  1  1
  2  6  1  0
  6  7  1  0
  7  8  1  0
  5  9  1  0
  9 10  1  0
  6 11  1  0
  8 12  1  0
  9 12  1  0
  3 12  1  0
  1 13  2  0
  4 14  1  0
 13 15  1  0
 14 15  2  0
 15 16  1  0
 16 17  2  0
 17 18  1  0
 18 19  2  0
 19 20  1  0
 16 21  1  0
 20 21  2  0
 19 22  1  0
 22 23  2  0
 23 24  1  0
 24 25  1  0
 24 26  2  0
  2 27  1  1
  2 28  1  0
  2 29  1  0
  4 30  1  0
  5 31  1  6
  5 32  1  0
  5 33  1  0
  7 34  1  6
  7 35  1  0
  8 36  1  1
  8 37  1  0
  9 38  1  1
 10 39  1  6
 10 40  1  0
 10 41  1  0
 11 42  1  6
 11 43  1  0
 11 44  1  0
 13 45  1  0
 14 46  1  0
 17 47  1  0
 18 48  1  0
 20 49  1  0
 21 50  1  0
 22 51  1  0
 23 52  1  0
 25 53  1  0
M  END
