7TM6_GPJ_A_502
     RDKit          3D

 19 18  0  0  0  0  0  0  0  0999 V2000
   -1.7591   -9.4671   18.2841 P   0  0  1  0  0  5  0  0  0  0  0  0
   -3.1152   -8.8168   18.1325 O   0  0  0  0  0  0  0  0  0  0  0  0
   -0.6319   -8.6597   17.3135 O   0  0  0  0  0  0  0  0  0  0  0  0
   -1.2793   -9.3621   19.9033 O   0  0  0  0  0  0  0  0  0  0  0  0
   -2.3730  -11.6740   13.2340 O   0  0  0  0  0  0  0  0  0  0  0  0
   -1.4023   -9.6511   13.7267 O   0  0  0  0  0  0  0  0  0  0  0  0
   -1.8453  -11.2302   17.8032 C   0  0  2  0  0  0  0  0  0  0  0  0
   -2.5742  -10.7005   15.5292 C   0  0  2  0  0  0  0  0  0  0  0  0
   -2.0940  -10.6314   14.1119 C   0  0  0  0  0  0  0  0  0  0  0  0
   -1.6080  -11.4325   16.3633 N   0  0  1  0  0  4  0  0  0  0  0  0
    0.0199   -9.3571   17.0498 H   0  0  0  0  0  0  0  0  0  0  0  0
   -2.1063   -9.1322   20.3972 H   0  0  0  0  0  0  0  0  0  0  0  0
   -2.0672  -12.6185   13.4355 H   0  0  0  0  0  0  0  0  0  0  0  0
   -2.8255  -11.6536   18.1141 H   0  0  0  0  0  0  0  0  0  0  0  0
   -1.0590  -11.7675   18.3768 H   0  0  0  0  0  0  0  0  0  0  0  0
   -3.5637  -11.2092   15.5438 H   0  0  0  0  0  0  0  0  0  0  0  0
   -2.7090   -9.6648   15.9058 H   0  0  0  0  0  0  0  0  0  0  0  0
   -0.6317  -11.1469   16.1160 H   0  0  0  0  0  0  0  0  0  0  0  0
   -1.7056  -12.4566   16.1651 H   0  0  0  0  0  0  0  0  0  0  0  0
  1  2  2  0
  1  3  1  6
  1  4  1  0
  1  7  1  0
  5  9  1  0
  6  9  2  0
  8  9  1  0
  7 10  1  0
  8 10  1  0
  3 11  1  0
  4 12  1  0
  5 13  1  0
  7 14  1  1
  7 15  1  0
  8 16  1  6
  8 17  1  0
 10 18  1  6
 10 19  1  0
M  CHG  1  10   1
M  END
