7AA0_R6B_BBB_201
     RDKit          3D

 53 55  0  0  0  0  0  0  0  0999 V2000
   -0.6294   -6.7917    8.8334 C   0  0  0  0  0  0  0  0  0  0  0  0
   -1.5771   -4.5777    9.5436 C   0  0  0  0  0  0  0  0  0  0  0  0
    0.4685   -7.4744    9.4205 C   0  0  0  0  0  0  0  0  0  0  0  0
    1.4935   -7.9735    8.5964 C   0  0  0  0  0  0  0  0  0  0  0  0
    1.9062   -9.6572   10.4881 C   0  0  0  0  0  0  0  0  0  0  0  0
   -1.7055   -6.1101    9.7003 C   0  0  2  0  0  0  0  0  0  0  0  0
   -1.5687   -6.4822   11.2074 C   0  0  0  0  0  0  0  0  0  0  0  0
   -0.1125   -6.5647   11.6493 C   0  0  0  0  0  0  0  0  0  0  0  0
    1.1374   -8.7980   11.5007 C   0  0  2  0  0  0  0  0  0  0  0  0
    0.0552   -9.6095   12.2185 C   0  0  0  0  0  0  0  0  0  0  0  0
   -3.1178   -6.5422    9.2416 C   0  0  0  0  0  0  0  0  0  0  0  0
    0.5523   -7.6012   10.8569 N   0  0  0  0  0  0  0  0  0  0  0  0
   -0.6754   -6.6655    7.4278 C   0  0  0  0  0  0  0  0  0  0  0  0
    1.4189   -7.8513    7.2109 C   0  0  0  0  0  0  0  0  0  0  0  0
    0.3330   -7.2015    6.6112 C   0  0  0  0  0  0  0  0  0  0  0  0
    0.2651   -7.0592    5.1343 C   0  0  0  0  0  0  0  0  0  0  0  0
   -0.8877   -6.5426    4.5197 C   0  0  0  0  0  0  0  0  0  0  0  0
   -0.9522   -6.4083    3.1303 C   0  0  0  0  0  0  0  0  0  0  0  0
    0.1352   -6.7779    2.3234 C   0  0  0  0  0  0  0  0  0  0  0  0
    1.2843   -7.3127    2.9373 C   0  0  0  0  0  0  0  0  0  0  0  0
    1.3483   -7.4468    4.3272 C   0  0  0  0  0  0  0  0  0  0  0  0
    0.0130   -6.6248    0.8525 C   0  0  0  0  0  0  0  0  0  0  0  0
   -1.1005   -6.2008    0.2376 C   0  0  0  0  0  0  0  0  0  0  0  0
   -1.1896   -6.0721   -1.2264 C   0  0  0  0  0  0  0  0  0  0  0  0
   -0.5665   -7.0202   -2.0312 O   0  0  0  0  0  0  0  0  0  0  0  0
   -1.8217   -5.1194   -1.7586 O   0  0  0  0  0  0  0  0  0  0  0  0
   -1.7557   -4.2668    8.4922 H   0  0  0  0  0  0  0  0  0  0  0  0
   -0.5615   -4.2336    9.8313 H   0  0  0  0  0  0  0  0  0  0  0  0
   -2.3207   -4.0514   10.1803 H   0  0  0  0  0  0  0  0  0  0  0  0
    2.3772   -8.4296    9.0208 H   0  0  0  0  0  0  0  0  0  0  0  0
    2.6412   -9.0284    9.9422 H   0  0  0  0  0  0  0  0  0  0  0  0
    2.4618  -10.4597   11.0187 H   0  0  0  0  0  0  0  0  0  0  0  0
    1.2261  -10.1365    9.7544 H   0  0  0  0  0  0  0  0  0  0  0  0
   -2.0330   -7.4756   11.3995 H   0  0  0  0  0  0  0  0  0  0  0  0
   -2.1073   -5.7495   11.8481 H   0  0  0  0  0  0  0  0  0  0  0  0
    0.4007   -5.5922   11.4943 H   0  0  0  0  0  0  0  0  0  0  0  0
   -0.0710   -6.7851   12.7356 H   0  0  0  0  0  0  0  0  0  0  0  0
    1.8864   -8.4999   12.2634 H   0  0  0  0  0  0  0  0  0  0  0  0
    0.5180  -10.4506   12.7774 H   0  0  0  0  0  0  0  0  0  0  0  0
   -0.6795  -10.0249   11.4977 H   0  0  0  0  0  0  0  0  0  0  0  0
   -0.4811   -8.9605   12.9429 H   0  0  0  0  0  0  0  0  0  0  0  0
   -3.1973   -7.6508    9.2241 H   0  0  0  0  0  0  0  0  0  0  0  0
   -3.3622   -6.1583    8.2297 H   0  0  0  0  0  0  0  0  0  0  0  0
   -3.8904   -6.1476    9.9370 H   0  0  0  0  0  0  0  0  0  0  0  0
   -1.4991   -6.1436    6.9614 H   0  0  0  0  0  0  0  0  0  0  0  0
    2.2312   -8.2373    6.6077 H   0  0  0  0  0  0  0  0  0  0  0  0
   -1.7351   -6.2267    5.1154 H   0  0  0  0  0  0  0  0  0  0  0  0
   -1.8522   -6.0023    2.6844 H   0  0  0  0  0  0  0  0  0  0  0  0
    2.1265   -7.6553    2.3527 H   0  0  0  0  0  0  0  0  0  0  0  0
    2.2379   -7.8779    4.7694 H   0  0  0  0  0  0  0  0  0  0  0  0
    0.8665   -6.9147    0.2499 H   0  0  0  0  0  0  0  0  0  0  0  0
   -1.9886   -5.9622    0.8057 H   0  0  0  0  0  0  0  0  0  0  0  0
   -0.6126   -6.9559   -3.0412 H   0  0  0  0  0  0  0  0  0  0  0  0
  1  3  4  0
  3  4  4  0
  1  6  1  0
  6  2  1  6
  6  7  1  0
  7  8  1  0
  5  9  1  0
  9 10  1  0
  6 11  1  0
  8 12  1  0
  9 12  1  0
  3 12  1  0
  1 13  4  0
  4 14  4  0
 13 15  4  0
 14 15  4  0
 15 16  1  0
 16 17  4  0
 17 18  4  0
 18 19  4  0
 19 20  4  0
 16 21  4  0
 20 21  4  0
 19 22  1  0
 22 23  2  3
 23 24  1  0
 24 25  1  0
 24 26  2  0
  2 27  1  0
  2 28  1  0
  2 29  1  0
  4 30  1  0
  5 31  1  0
  5 32  1  0
  5 33  1  0
  7 34  1  0
  7 35  1  0
  8 36  1  0
  8 37  1  0
  9 38  1  6
 10 39  1  0
 10 40  1  0
 10 41  1  0
 11 42  1  0
 11 43  1  0
 11 44  1  0
 13 45  1  0
 14 46  1  0
 17 47  1  0
 18 48  1  0
 20 49  1  0
 21 50  1  0
 22 51  1  0
 23 52  1  0
 25 53  1  0
M  END
