7VB8_STL_B_401
     RDKit          3D

 29 30  0  0  0  0  0  0  0  0999 V2000
    8.1393   16.2942  -31.3219 C   0  0  0  0  0  0  0  0  0  0  0  0
    8.0610   17.1842  -32.3756 C   0  0  0  0  0  0  0  0  0  0  0  0
    7.0984   18.1915  -32.3461 C   0  0  0  0  0  0  0  0  0  0  0  0
    6.2074   18.3052  -31.2757 C   0  0  0  0  0  0  0  0  0  0  0  0
    6.3309   17.4277  -30.1911 C   0  0  0  0  0  0  0  0  0  0  0  0
    7.2904   16.4308  -30.2312 C   0  0  0  0  0  0  0  0  0  0  0  0
    5.4218   17.4499  -29.0348 C   0  0  0  0  0  0  0  0  0  0  0  0
    4.6744   18.4493  -28.6360 C   0  0  0  0  0  0  0  0  0  0  0  0
    3.7674   18.4665  -27.4875 C   0  0  0  0  0  0  0  0  0  0  0  0
    4.2067   18.0978  -26.2177 C   0  0  0  0  0  0  0  0  0  0  0  0
    3.3623   18.1563  -25.1190 C   0  0  0  0  0  0  0  0  0  0  0  0
    2.0301   18.5213  -25.2785 C   0  0  0  0  0  0  0  0  0  0  0  0
    1.5848   18.9123  -26.5207 C   0  0  0  0  0  0  0  0  0  0  0  0
    2.4375   18.8780  -27.5993 C   0  0  0  0  0  0  0  0  0  0  0  0
    1.1845   18.5796  -24.2026 O   0  0  0  0  0  0  0  0  0  0  0  0
    6.9699   18.9853  -33.4663 O   0  0  0  0  0  0  0  0  0  0  0  0
    9.1046   15.3004  -31.2757 O   0  0  0  0  0  0  0  0  0  0  0  0
    8.7080   17.1041  -33.1756 H   0  0  0  0  0  0  0  0  0  0  0  0
    5.4687   19.0258  -31.2843 H   0  0  0  0  0  0  0  0  0  0  0  0
    7.3765   15.7776  -29.4368 H   0  0  0  0  0  0  0  0  0  0  0  0
    5.3667   16.5836  -28.4767 H   0  0  0  0  0  0  0  0  0  0  0  0
    4.7312   19.3175  -29.1912 H   0  0  0  0  0  0  0  0  0  0  0  0
    5.1790   17.7751  -26.0923 H   0  0  0  0  0  0  0  0  0  0  0  0
    3.7241   17.9281  -24.1798 H   0  0  0  0  0  0  0  0  0  0  0  0
    0.6110   19.2313  -26.6428 H   0  0  0  0  0  0  0  0  0  0  0  0
    2.0820   19.1666  -28.5241 H   0  0  0  0  0  0  0  0  0  0  0  0
    1.4850   18.3140  -23.3557 H   0  0  0  0  0  0  0  0  0  0  0  0
    7.5759   18.8965  -34.1754 H   0  0  0  0  0  0  0  0  0  0  0  0
    9.6918   15.1839  -31.9964 H   0  0  0  0  0  0  0  0  0  0  0  0
  1  2  4  0
  2  3  4  0
  3  4  4  0
  4  5  4  0
  1  6  4  0
  5  6  4  0
  5  7  1  0
  7  8  2  3
  8  9  1  0
  9 10  4  0
 10 11  4  0
 11 12  4  0
 12 13  4  0
  9 14  4  0
 13 14  4  0
 12 15  1  0
  3 16  1  0
  1 17  1  0
  2 18  1  0
  4 19  1  0
  6 20  1  0
  7 21  1  0
  8 22  1  0
 10 23  1  0
 11 24  1  0
 13 25  1  0
 14 26  1  0
 15 27  1  0
 16 28  1  0
 17 29  1  0
M  END
