1S19_MC9_A_500
     RDKit          3D

 30 33  0  0  0  0  0  0  0  0999 V2000
   13.7512   24.4164   44.3795 O   0  0  0  0  0  0  0  0  0  0  0  0
   18.1288   24.5216   43.9926 O   0  0  0  0  0  0  0  0  0  0  0  0
   16.7150   24.3683   43.6304 C   0  0  1  0  0  0  0  0  0  0  0  0
   15.8525   25.6731   43.9301 C   0  0  0  0  0  0  0  0  0  0  0  0
   14.3029   25.4698   43.5318 C   0  0  1  0  0  0  0  0  0  0  0  0
   14.1651   25.0531   41.9975 C   0  0  0  0  0  0  0  0  0  0  0  0
   15.0346   23.8190   41.5838 C   0  0  0  0  0  0  0  0  0  0  0  0
   14.5567   22.7316   40.8647 C   0  0  0  0  0  0  0  0  0  0  0  0
   15.2201   21.4904   40.3800 C   0  0  0  0  0  0  0  0  0  0  0  0
   14.9082   20.7202   39.3646 C   0  0  0  0  0  0  0  0  0  0  0  0
   13.6546   20.9970   38.3846 C   0  0  0  0  0  0  0  0  0  0  0  0
   16.5580   23.9823   42.0944 C   0  0  0  0  0  0  0  0  0  0  0  0
   14.0977   21.1450   36.8309 C   0  0  0  0  0  0  0  0  0  0  0  0
   15.1751   19.9992   36.4497 C   0  0  0  0  0  0  0  0  0  0  0  0
   16.4489   19.6493   37.5009 C   0  0  1  0  0  0  0  0  0  0  0  0
   15.7277   19.4549   38.9720 C   0  0  1  0  0  0  0  0  0  0  0  0
   17.0830   19.0381   39.8878 C   0  0  0  0  0  0  0  0  0  0  0  0
   17.9704   18.2455   38.8241 C   0  0  0  0  0  0  0  0  0  0  0  0
   17.1311   18.2638   37.4893 C   0  0  2  0  0  0  0  0  0  0  0  0
   17.3909   21.0850   37.3631 C   0  0  0  0  0  0  0  0  0  0  0  0
   17.6654   23.8223   41.2659 C   0  0  0  0  0  0  0  0  0  0  0  0
   18.0476   17.9936   36.1245 C   0  0  1  0  0  0  0  0  0  0  0  0
   18.9523   19.1110   35.5232 C   0  0  0  0  0  0  0  0  0  0  0  0
   20.0717   20.3511   33.5475 C   0  0  2  0  0  0  0  0  0  0  0  0
   18.9837   16.7896   36.3640 C   0  0  0  0  0  0  0  0  0  0  0  0
   20.5372   21.4836   34.5998 C   0  0  2  0  0  0  0  0  0  0  0  0
   19.5209   21.3132   35.7523 C   0  0  0  0  0  0  0  0  0  0  0  0
   19.9209   22.6072   34.9300 C   0  0  0  0  0  0  0  0  0  0  0  0
   19.5720   20.8479   32.2770 O   0  0  0  0  0  0  0  0  0  0  0  0
   19.0217   19.4471   34.2041 C   0  0  0  0  0  0  0  0  0  0  0  0
  3  2  1  6
  3  4  1  0
  5  1  1  1
  4  5  1  0
  5  6  1  0
  6  7  1  0
  7  8  2  0
  8  9  1  0
  9 10  2  0
 10 11  1  0
  3 12  1  0
  7 12  1  0
 11 13  1  0
 13 14  1  0
 14 15  1  0
 10 16  1  0
 15 16  1  0
 16 17  1  1
 17 18  1  0
 15 19  1  0
 19 18  1  1
 15 20  1  1
 12 21  2  0
 19 22  1  0
 22 23  1  0
 22 25  1  1
 24 26  1  0
 26 27  1  1
 26 28  1  0
 27 28  1  0
 24 29  1  6
 23 30  2  0
 24 30  1  0
M  END
