8G43_ZU6_A_1304
     RDKit          3D

 36 37  0  0  0  0  0  0  0  0999 V2000
    1.7293    2.4961   -3.8828 C   0  0  0  0  0  0  0  0  0  0  0  0
    1.6685    1.9117   -2.6135 C   0  0  0  0  0  0  0  0  0  0  0  0
    0.3345    0.7881   -0.8708 C   0  0  0  0  0  0  0  0  0  0  0  0
   -0.4651    0.1967    3.1613 O   0  0  0  0  0  0  0  0  0  0  0  0
   -0.3700    0.5402    1.9517 C   0  0  0  0  0  0  0  0  0  0  0  0
    0.3076    1.7549    1.6021 N   0  0  0  0  0  0  0  0  0  0  0  0
   -0.3099    3.0599    1.8009 C   0  0  0  0  0  0  0  0  0  0  0  0
   -0.9391   -0.3575    0.8879 C   0  0  0  0  0  0  0  0  0  0  0  0
   -0.8749    0.2864   -0.4439 N   0  0  0  0  0  4  0  0  0  0  0  0
    1.3520    0.7119   -0.1248 O   0  0  0  0  0  0  0  0  0  0  0  0
    0.4521    1.3858   -2.1361 C   0  0  0  0  0  0  0  0  0  0  0  0
    0.5845    2.5606   -4.6820 C   0  0  0  0  0  0  0  0  0  0  0  0
   -0.6256    2.0405   -4.2150 C   0  0  0  0  0  0  0  0  0  0  0  0
   -0.6921    1.4539   -2.9458 C   0  0  0  0  0  0  0  0  0  0  0  0
   -1.8625    0.9513   -2.4939 N   0  0  0  0  0  0  0  0  0  0  0  0
   -1.9809    0.3720   -1.2686 C   0  0  0  0  0  0  0  0  0  0  0  0
   -3.3443   -0.1494   -0.8428 C   0  0  0  0  0  0  0  0  0  0  0  0
   -3.3216   -1.0890    0.3758 C   0  0  0  0  0  0  0  0  0  0  0  0
   -4.0915   -2.3516    0.1277 C   0  0  0  0  0  0  0  0  0  0  0  0
   -5.3231   -2.2994   -0.5176 O   0  0  0  0  0  0  0  0  0  0  0  0
   -3.6257   -3.4599    0.5055 O   0  0  0  0  0  0  0  0  0  0  0  0
    2.6652    2.8997   -4.2472 H   0  0  0  0  0  0  0  0  0  0  0  0
    2.5682    1.8730   -2.0119 H   0  0  0  0  0  0  0  0  0  0  0  0
    1.2625    1.7158    1.1822 H   0  0  0  0  0  0  0  0  0  0  0  0
    0.3794    3.8599    1.4574 H   0  0  0  0  0  0  0  0  0  0  0  0
   -0.5285    3.2126    2.8787 H   0  0  0  0  0  0  0  0  0  0  0  0
   -1.2524    3.1232    1.2172 H   0  0  0  0  0  0  0  0  0  0  0  0
   -0.4126   -1.3296    0.9268 H   0  0  0  0  0  0  0  0  0  0  0  0
   -1.9982   -0.5979    1.1305 H   0  0  0  0  0  0  0  0  0  0  0  0
    0.6352    3.0138   -5.6634 H   0  0  0  0  0  0  0  0  0  0  0  0
   -1.5091    2.0941   -4.8393 H   0  0  0  0  0  0  0  0  0  0  0  0
   -3.9884    0.7153   -0.5775 H   0  0  0  0  0  0  0  0  0  0  0  0
   -3.8170   -0.6807   -1.6973 H   0  0  0  0  0  0  0  0  0  0  0  0
   -2.2727   -1.3277    0.6565 H   0  0  0  0  0  0  0  0  0  0  0  0
   -3.7822   -0.5646    1.2408 H   0  0  0  0  0  0  0  0  0  0  0  0
   -5.8575   -3.1432   -0.6866 H   0  0  0  0  0  0  0  0  0  0  0  0
  1  2  4  0
  4  5  2  0
  5  6  1  0
  6  7  1  0
  5  8  1  0
  3  9  4  0
  8  9  1  0
  3 10  2  0
  2 11  4  0
  3 11  4  0
  1 12  4  0
 12 13  4  0
 13 14  4  0
 11 14  4  0
 14 15  4  0
 15 16  4  0
  9 16  4  0
 16 17  1  0
 17 18  1  0
 18 19  1  0
 19 20  1  0
 19 21  2  0
  1 22  1  0
  2 23  1  0
  6 24  1  0
  7 25  1  0
  7 26  1  0
  7 27  1  0
  8 28  1  0
  8 29  1  0
 12 30  1  0
 13 31  1  0
 17 32  1  0
 17 33  1  0
 18 34  1  0
 18 35  1  0
 20 36  1  0
M  CHG  1   9   1
M  END
