7XIJ_EJ3_A_1201
     RDKit          3D

 52 55  0  0  0  0  0  0  0  0999 V2000
   38.2507  -13.7255   -2.9378 C   0  0  0  0  0  0  0  0  0  0  0  0
   38.4476  -12.6786   -4.0555 C   0  0  0  0  0  0  0  0  0  0  0  0
   39.4976  -12.7096   -4.7079 O   0  0  0  0  0  0  0  0  0  0  0  0
   37.3860  -11.8945   -4.3986 N   0  0  0  0  0  4  0  0  0  0  0  0
   36.8373  -10.8829   -3.6696 C   0  0  0  0  0  0  0  0  0  0  0  0
   36.6268  -12.0407   -5.4995 C   0  0  0  0  0  0  0  0  0  0  0  0
   36.7471  -12.8981   -6.5516 C   0  0  0  0  0  0  0  0  0  0  0  0
   35.8793  -12.8682   -7.6269 C   0  0  0  0  0  0  0  0  0  0  0  0
   34.8559  -11.9476   -7.6326 C   0  0  0  0  0  0  0  0  0  0  0  0
   34.0336  -12.0292   -8.7311 O   0  0  0  0  0  0  0  0  0  0  0  0
   33.4781  -13.2863   -9.0603 C   0  0  0  0  0  0  0  0  0  0  0  0
   34.7546  -11.0643   -6.5217 C   0  0  0  0  0  0  0  0  0  0  0  0
   35.6339  -11.1052   -5.4820 C   0  0  0  0  0  0  0  0  0  0  0  0
   35.7697  -10.3883   -4.3136 C   0  0  0  0  0  0  0  0  0  0  0  0
   34.9814   -9.3279   -3.8640 C   0  0  0  0  0  0  0  0  0  0  0  0
   35.4810   -8.2065   -3.6861 O   0  0  0  0  0  0  0  0  0  0  0  0
   33.6616   -9.6112   -3.5701 N   0  0  0  0  0  0  0  0  0  0  0  0
   32.9629  -10.7340   -3.9880 C   0  0  0  0  0  0  0  0  0  0  0  0
   32.1572  -11.4996   -3.1215 C   0  0  0  0  0  0  0  0  0  0  0  0
   32.0907  -11.1675   -1.8591 F   0  0  0  0  0  0  0  0  0  0  0  0
   33.0171  -11.0692   -5.3390 C   0  0  0  0  0  0  0  0  0  0  0  0
   32.3199  -12.1570   -5.8756 C   0  0  0  0  0  0  0  0  0  0  0  0
   32.4386  -12.4554   -7.2530 C   0  0  0  0  0  0  0  0  0  0  0  0
   31.5211  -12.1627   -8.0694 O   0  0  0  0  0  0  0  0  0  0  0  0
   33.4600  -13.0231   -7.7059 O   0  0  0  0  0  0  0  0  0  0  0  0
   31.5218  -12.9212   -5.0031 C   0  0  0  0  0  0  0  0  0  0  0  0
   31.4142  -12.6194   -3.6277 C   0  0  0  0  0  0  0  0  0  0  0  0
   30.6160  -13.3932   -2.8381 C   0  0  0  0  0  0  0  0  0  0  0  0
   29.2783  -13.4737   -2.8376 C   0  0  0  0  0  0  0  0  0  0  0  0
   31.0618  -14.2308   -1.8851 C   0  0  0  0  0  0  0  0  0  0  0  0
   30.0079  -14.8231   -1.2973 N   0  0  0  0  0  0  0  0  0  0  0  0
   28.9118  -14.3581   -1.8975 N   0  0  0  0  0  4  0  0  0  0  0  0
   27.5433  -14.8011   -1.5042 C   0  0  0  0  0  0  0  0  0  0  0  0
   39.1654  -14.2586   -2.7832 H   0  0  0  0  0  0  0  0  0  0  0  0
   37.9685  -13.2311   -2.0317 H   0  0  0  0  0  0  0  0  0  0  0  0
   37.4815  -14.4121   -3.2238 H   0  0  0  0  0  0  0  0  0  0  0  0
   37.1897  -10.5478   -2.7595 H   0  0  0  0  0  0  0  0  0  0  0  0
   37.5108  -13.5921   -6.5455 H   0  0  0  0  0  0  0  0  0  0  0  0
   35.9969  -13.5259   -8.4134 H   0  0  0  0  0  0  0  0  0  0  0  0
   32.8661  -13.1885   -9.9324 H   0  0  0  0  0  0  0  0  0  0  0  0
   34.2655  -13.9845   -9.2537 H   0  0  0  0  0  0  0  0  0  0  0  0
   32.8823  -13.6378   -8.2439 H   0  0  0  0  0  0  0  0  0  0  0  0
   33.9908  -10.3705   -6.5031 H   0  0  0  0  0  0  0  0  0  0  0  0
   33.1746   -8.9594   -3.0157 H   0  0  0  0  0  0  0  0  0  0  0  0
   33.5949  -10.4917   -5.9696 H   0  0  0  0  0  0  0  0  0  0  0  0
   30.7429  -11.7376   -7.7668 H   0  0  0  0  0  0  0  0  0  0  0  0
   30.9991  -13.7272   -5.3805 H   0  0  0  0  0  0  0  0  0  0  0  0
   28.6401  -12.9466   -3.4540 H   0  0  0  0  0  0  0  0  0  0  0  0
   32.0523  -14.3926   -1.6441 H   0  0  0  0  0  0  0  0  0  0  0  0
   27.6142  -15.5204   -0.7153 H   0  0  0  0  0  0  0  0  0  0  0  0
   26.9782  -13.9571   -1.1677 H   0  0  0  0  0  0  0  0  0  0  0  0
   27.0556  -15.2435   -2.3476 H   0  0  0  0  0  0  0  0  0  0  0  0
  1  2  1  0
  2  3  2  0
  2  4  1  0
  4  5  4  0
  4  6  4  0
  6  7  4  0
  7  8  4  0
  8  9  4  0
  9 10  1  0
 10 11  1  0
  9 12  4  0
  6 13  4  0
 12 13  4  0
  5 14  4  0
 13 14  4  0
 14 15  1  0
 15 16  2  0
 15 17  1  0
 17 18  1  0
 18 19  4  0
 19 20  1  0
 18 21  4  0
 21 22  4  0
 22 23  1  0
 23 24  1  0
 23 25  2  0
 22 26  4  0
 26 27  4  0
 19 27  4  0
 27 28  1  0
 28 29  4  0
 28 30  4  0
 30 31  4  0
 31 32  4  0
 29 32  4  0
 32 33  1  0
  1 34  1  0
  1 35  1  0
  1 36  1  0
  5 37  1  0
  7 38  1  0
  8 39  1  0
 11 40  1  0
 11 41  1  0
 11 42  1  0
 12 43  1  0
 17 44  1  0
 21 45  1  0
 24 46  1  0
 26 47  1  0
 29 48  1  0
 30 49  1  0
 33 50  1  0
 33 51  1  0
 33 52  1  0
M  CHG  2   4   1  32   1
M  END
