7Q5I_I0F_AAA_901
     RDKit          3D

 50 51  0  0  0  0  0  0  0  0999 V2000
    7.3308    9.0080    4.2220 N   0  0  0  0  0  0  0  0  0  0  0  0
   10.0840    6.0502    5.3008 C   0  0  1  0  0  0  0  0  0  0  0  0
    8.8818    5.7156    4.3661 C   0  0  1  0  0  0  0  0  0  0  0  0
    7.9319    4.7065    5.0097 C   0  0  0  0  0  0  0  0  0  0  0  0
    6.0388    8.5961    3.7651 C   0  0  0  0  0  0  0  0  0  0  0  0
    5.0779    9.5650    3.1871 C   0  0  0  0  0  0  0  0  0  0  0  0
    4.3874   11.9369    2.7536 C   0  0  0  0  0  0  0  0  0  0  0  0
    2.5832   13.8949    1.7872 C   0  0  0  0  0  0  0  0  0  0  0  0
    4.1714   12.0825    1.3696 C   0  0  0  0  0  0  0  0  0  0  0  0
    2.1835   16.1532    0.7050 C   0  0  0  0  0  0  0  0  0  0  0  0
    0.2086   14.7024    1.3718 C   0  0  0  0  0  0  0  0  0  0  0  0
    1.6669   14.9068    1.2920 N   0  0  0  0  0  0  0  0  0  0  0  0
    3.2882   13.0545    0.8920 C   0  0  0  0  0  0  0  0  0  0  0  0
    2.7856   13.7196    3.1762 C   0  0  0  0  0  0  0  0  0  0  0  0
    3.6694   12.7464    3.6504 C   0  0  0  0  0  0  0  0  0  0  0  0
    5.2906   10.8923    3.2913 C   0  0  0  0  0  0  0  0  0  0  0  0
    3.9759    9.0419    2.4116 C   0  0  0  0  0  0  0  0  0  0  0  0
    3.0954    8.6219    1.7905 N   0  0  0  0  0  0  0  0  0  0  0  0
    5.7015    7.3957    3.8814 O   0  0  0  0  0  0  0  0  0  0  0  0
    8.4058    8.0656    4.5398 C   0  0  2  0  0  0  0  0  0  0  0  0
    8.1141    6.8283    3.9095 O   0  0  0  0  0  0  0  0  0  0  0  0
    8.6138    3.5270    5.3460 O   0  0  0  0  0  0  0  0  0  0  0  0
   11.0892    6.6648    4.5459 O   0  0  0  0  0  0  0  0  0  0  0  0
    9.6709    6.9770    6.4801 C   0  0  2  0  0  0  0  0  0  0  0  0
    9.2901    6.2056    7.5878 O   0  0  0  0  0  0  0  0  0  0  0  0
    8.5179    7.9324    6.0843 C   0  0  1  0  0  0  0  0  0  0  0  0
    8.6741    9.1832    6.7102 O   0  0  0  0  0  0  0  0  0  0  0  0
    7.5533   10.0206    4.2556 H   0  0  0  0  0  0  0  0  0  0  0  0
   10.5074    5.1133    5.7284 H   0  0  0  0  0  0  0  0  0  0  0  0
    9.2979    5.2187    3.4510 H   0  0  0  0  0  0  0  0  0  0  0  0
    7.4672    5.1388    5.9299 H   0  0  0  0  0  0  0  0  0  0  0  0
    7.1037    4.4779    4.3027 H   0  0  0  0  0  0  0  0  0  0  0  0
    4.6672   11.4289    0.6556 H   0  0  0  0  0  0  0  0  0  0  0  0
    2.6188   15.9402   -0.2832 H   0  0  0  0  0  0  0  0  0  0  0  0
    1.3785   16.9069    0.5742 H   0  0  0  0  0  0  0  0  0  0  0  0
    2.9632   16.6046    1.3663 H   0  0  0  0  0  0  0  0  0  0  0  0
   -0.1183   14.7925    2.4185 H   0  0  0  0  0  0  0  0  0  0  0  0
   -0.0668   13.6939    0.9791 H   0  0  0  0  0  0  0  0  0  0  0  0
   -0.3456   15.4543    0.7729 H   0  0  0  0  0  0  0  0  0  0  0  0
    3.1480   13.1288   -0.1811 H   0  0  0  0  0  0  0  0  0  0  0  0
    2.2701   14.3372    3.9050 H   0  0  0  0  0  0  0  0  0  0  0  0
    3.8037   12.6337    4.7231 H   0  0  0  0  0  0  0  0  0  0  0  0
    6.2198   11.2455    3.7269 H   0  0  0  0  0  0  0  0  0  0  0  0
    9.3584    8.4404    4.1214 H   0  0  0  0  0  0  0  0  0  0  0  0
    8.7805    3.0326    4.4928 H   0  0  0  0  0  0  0  0  0  0  0  0
   11.5314    5.9557    3.9988 H   0  0  0  0  0  0  0  0  0  0  0  0
   10.5660    7.5647    6.7713 H   0  0  0  0  0  0  0  0  0  0  0  0
    9.2682    6.8119    8.3828 H   0  0  0  0  0  0  0  0  0  0  0  0
    7.5601    7.5151    6.4468 H   0  0  0  0  0  0  0  0  0  0  0  0
    9.4825    9.5967    6.3234 H   0  0  0  0  0  0  0  0  0  0  0  0
  2  3  1  0
  3  4  1  0
  1  5  1  0
  5  6  1  0
  7  9  4  0
  8 12  1  0
 10 12  1  0
 11 12  1  0
  9 13  4  0
  8 13  4  0
  8 14  4  0
  7 15  4  0
 14 15  4  0
  6 16  2  3
  7 16  1  0
  6 17  1  0
 17 18  3  0
  5 19  2  0
 20  1  1  0
  3 21  1  0
 20 21  1  0
  4 22  1  0
  2 23  1  0
  2 24  1  0
 24 25  1  0
 24 26  1  0
 20 26  1  0
 26 27  1  0
  1 28  1  0
  2 29  1  1
  3 30  1  6
  4 31  1  0
  4 32  1  0
  9 33  1  0
 10 34  1  0
 10 35  1  0
 10 36  1  0
 11 37  1  0
 11 38  1  0
 11 39  1  0
 13 40  1  0
 14 41  1  0
 15 42  1  0
 16 43  1  0
 20 44  1  6
 22 45  1  0
 23 46  1  0
 24 47  1  1
 25 48  1  0
 26 49  1  1
 27 50  1  0
M  END
