7ZXV_45D_A_402
     RDKit          3D

 42 43  0  0  0  0  0  0  0  0999 V2000
   33.5611   11.2446  -26.0570 O   0  0  0  0  0  0  0  0  0  0  0  0
   15.2965   16.1217   -5.4980 O   0  0  0  0  0  0  0  0  0  0  0  0
   32.7851   13.0999  -22.3822 C   0  0  1  0  0  0  0  0  0  0  0  0
   18.0567   12.9971   -4.9041 C   0  0  1  0  0  0  0  0  0  0  0  0
   34.1123   13.3143  -23.1221 C   0  0  0  0  0  0  0  0  0  0  0  0
   16.5388   12.8050   -4.8524 C   0  0  0  0  0  0  0  0  0  0  0  0
   32.1721   11.7527  -22.6960 C   0  0  0  0  0  0  0  0  0  0  0  0
   18.4368   14.2488   -5.7149 C   0  0  0  0  0  0  0  0  0  0  0  0
   33.9733   13.0846  -24.6354 C   0  0  0  0  0  0  0  0  0  0  0  0
   15.8027   14.0562   -4.3582 C   0  0  0  0  0  0  0  0  0  0  0  0
   33.0376   13.2563  -20.8755 C   0  0  0  0  0  0  0  0  0  0  0  0
   31.7969   14.1774  -22.8689 C   0  0  0  0  0  0  0  0  0  0  0  0
   18.6264   13.0749   -3.4789 C   0  0  0  0  0  0  0  0  0  0  0  0
   18.6743   11.7759   -5.5827 C   0  0  0  0  0  0  0  0  0  0  0  0
   32.3430   11.1241  -24.0611 C   0  0  0  0  0  0  0  0  0  0  0  0
   17.5357   15.4704   -5.6627 C   0  0  0  0  0  0  0  0  0  0  0  0
   33.3098   11.7659  -25.0108 C   0  0  0  0  0  0  0  0  0  0  0  0
   16.1031   15.2799   -5.1982 C   0  0  0  0  0  0  0  0  0  0  0  0
   31.0218   11.3774  -21.7944 C   0  0  0  0  0  0  0  0  0  0  0  0
   19.8443   14.4689   -6.1944 C   0  0  0  0  0  0  0  0  0  0  0  0
   31.9657    9.6377  -24.1900 C   0  0  0  0  0  0  0  0  0  0  0  0
   17.9333   16.7953   -6.3110 C   0  0  0  0  0  0  0  0  0  0  0  0
   31.2424   11.0287  -20.5718 C   0  0  0  0  0  0  0  0  0  0  0  0
   20.1338   14.2630   -7.4539 C   0  0  0  0  0  0  0  0  0  0  0  0
   30.0340   10.7724  -19.6972 C   0  0  0  0  0  0  0  0  0  0  0  0
   21.5522   14.5256   -7.9313 C   0  0  0  0  0  0  0  0  0  0  0  0
   28.6638   10.7659  -20.3197 C   0  0  0  0  0  0  0  0  0  0  0  0
   22.5051   15.3377   -7.0906 C   0  0  0  0  0  0  0  0  0  0  0  0
   30.2407   10.5909  -18.3854 C   0  0  0  0  0  0  0  0  0  0  0  0
   21.8606   13.9630   -9.1075 C   0  0  0  0  0  0  0  0  0  0  0  0
   29.0963   10.4404  -17.4091 C   0  0  0  0  0  0  0  0  0  0  0  0
   23.1964   14.1329   -9.8033 C   0  0  0  0  0  0  0  0  0  0  0  0
   29.4105   10.2550  -16.1265 C   0  0  0  0  0  0  0  0  0  0  0  0
   23.6202   13.1707  -10.6420 C   0  0  0  0  0  0  0  0  0  0  0  0
   28.3896   10.1535  -15.0008 C   0  0  0  0  0  0  0  0  0  0  0  0
   24.9211   13.3697  -11.4317 C   0  0  0  0  0  0  0  0  0  0  0  0
   28.1193   11.2593  -14.3215 C   0  0  0  0  0  0  0  0  0  0  0  0
   25.7785   12.3309  -11.4547 C   0  0  0  0  0  0  0  0  0  0  0  0
   27.7296    8.8298  -14.6461 C   0  0  0  0  0  0  0  0  0  0  0  0
   25.1542   14.6356  -12.2162 C   0  0  0  0  0  0  0  0  0  0  0  0
   27.0712   11.3819  -13.2463 C   0  0  0  0  0  0  0  0  0  0  0  0
   27.0306   12.3574  -12.3058 C   0  0  0  0  0  0  0  0  0  0  0  0
  3  5  1  0
  4  6  1  0
  3  7  1  0
  4  8  1  0
  5  9  1  0
  6 10  1  0
  3 11  1  1
  3 12  1  0
  4 13  1  1
  4 14  1  0
  7 15  2  0
  8 16  2  0
  1 17  2  0
  9 17  1  0
 15 17  1  0
 16 18  1  0
 10 18  1  0
  2 18  2  0
  7 19  1  0
  8 20  1  0
 15 21  1  0
 16 22  1  0
 19 23  2  0
 20 24  2  0
 23 25  1  0
 24 26  1  0
 25 27  1  0
 26 28  1  0
 25 29  2  0
 26 30  2  0
 29 31  1  0
 30 32  1  0
 31 33  2  0
 32 34  2  0
 33 35  1  0
 34 36  1  0
 35 37  2  0
 36 38  2  0
 35 39  1  0
 36 40  1  0
 37 41  1  0
 41 42  2  0
 38 42  1  0
M  END
