7UMW_NAD_B_301
     RDKit          3D

 44 48  0  0  0  0  0  0  0  0999 V2000
  -45.2960   52.3380  -26.9160 P   0  0  1  0  0  0  0  0  0  0  0  0
  -46.4890   53.1580  -27.3680 O   0  0  0  0  0  0  0  0  0  0  0  0
  -44.0220   53.1200  -26.9390 O   0  0  0  0  0  0  0  0  0  0  0  0
  -45.7500   51.7380  -25.4450 O   0  0  0  0  0  0  0  0  0  0  0  0
  -44.7170   51.4870  -24.5620 C   0  0  0  0  0  0  0  0  0  0  0  0
  -45.1340   52.1830  -23.2280 C   0  0  1  0  0  0  0  0  0  0  0  0
  -44.0540   51.7240  -22.2010 O   0  0  0  0  0  0  0  0  0  0  0  0
  -45.0460   53.4560  -23.2890 C   0  0  1  0  0  0  0  0  0  0  0  0
  -46.3060   54.0850  -22.9500 O   0  0  0  0  0  0  0  0  0  0  0  0
  -44.0640   53.9020  -22.0320 C   0  0  1  0  0  0  0  0  0  0  0  0
  -44.5340   55.1580  -21.4610 O   0  0  0  0  0  0  0  0  0  0  0  0
  -44.1530   52.8840  -21.2390 C   0  0  2  0  0  0  0  0  0  0  0  0
  -42.9890   52.8730  -20.3240 N   0  0  0  0  0  0  0  0  0  0  0  0
  -41.7270   52.7550  -20.6470 C   0  0  0  0  0  0  0  0  0  0  0  0
  -41.0020   52.8700  -19.5250 N   0  0  0  0  0  0  0  0  0  0  0  0
  -41.8450   53.0370  -18.4760 C   0  0  0  0  0  0  0  0  0  0  0  0
  -41.6800   53.1910  -17.0950 C   0  0  0  0  0  0  0  0  0  0  0  0
  -40.3670   53.1830  -16.5440 N   0  0  0  0  0  0  0  0  0  0  0  0
  -42.7610   53.3300  -16.3450 N   0  0  0  0  0  0  0  0  0  0  0  0
  -43.9680   53.3480  -16.8500 C   0  0  0  0  0  0  0  0  0  0  0  0
  -44.1680   53.1850  -18.1500 N   0  0  0  0  0  0  0  0  0  0  0  0
  -43.1090   53.0320  -18.9720 C   0  0  0  0  0  0  0  0  0  0  0  0
  -45.1000   51.0530  -27.8890 O   0  0  0  0  0  0  0  0  0  0  0  0
  -46.0130   49.6720  -27.8890 P   0  0  2  0  0  0  0  0  0  0  0  0
  -45.7040   48.9680  -29.1630 O   0  0  0  0  0  0  0  0  0  0  0  0
  -47.4640   50.0290  -27.6580 O   0  0  0  0  0  0  0  0  0  0  0  0
  -45.4220   48.7840  -26.5990 O   0  0  0  0  0  0  0  0  0  0  0  0
  -46.3840   48.1930  -25.6610 C   0  0  0  0  0  0  0  0  0  0  0  0
  -45.8910   46.7710  -25.3250 C   0  0  1  0  0  0  0  0  0  0  0  0
  -46.0230   46.0050  -26.4130 O   0  0  0  0  0  0  0  0  0  0  0  0
  -44.3650   46.7480  -24.9530 C   0  0  1  0  0  0  0  0  0  0  0  0
  -44.1320   45.9210  -23.8800 O   0  0  0  0  0  0  0  0  0  0  0  0
  -43.7090   46.1740  -26.2030 C   0  0  1  0  0  0  0  0  0  0  0  0
  -42.3720   45.5930  -25.8670 O   0  0  0  0  0  0  0  0  0  0  0  0
  -44.6260   45.2430  -26.5740 C   0  0  2  0  0  0  0  0  0  0  0  0
  -44.6770   44.7770  -27.9240 N   0  0  0  0  0  0  0  0  0  0  0  0
  -44.5160   45.6120  -28.9620 C   0  0  0  0  0  0  0  0  0  0  0  0
  -44.6430   45.1140  -30.2810 C   0  0  0  0  0  0  0  0  0  0  0  0
  -44.4160   46.0350  -31.4700 C   0  0  0  0  0  0  0  0  0  0  0  0
  -43.9910   45.5970  -32.5240 O   0  0  0  0  0  0  0  0  0  0  0  0
  -44.7320   47.4850  -31.2580 N   0  0  0  0  0  0  0  0  0  0  0  0
  -44.9560   43.7810  -30.5580 C   0  0  0  0  0  0  0  0  0  0  0  0
  -45.1270   42.9580  -29.4120 C   0  0  0  0  0  0  0  0  0  0  0  0
  -44.9960   43.5030  -28.1210 C   0  0  0  0  0  0  0  0  0  0  0  0
  1  2  2  0
  1  3  1  1
  1  4  1  0
  4  5  1  0
  6  5  1  6
  6  7  1  0
  6  8  1  0
  8  9  1  1
  8 10  1  0
 10 11  1  1
  7 12  1  0
 10 12  1  0
 12 13  1  1
 13 14  1  0
 14 15  2  0
 15 16  1  0
 16 17  1  0
 17 18  1  0
 17 19  2  0
 19 20  1  0
 20 21  2  0
 13 22  1  0
 16 22  2  0
 21 22  1  0
  1 23  1  0
 23 24  1  0
 24 25  2  0
 24 26  1  1
 24 27  1  0
 27 28  1  0
 29 28  1  6
 29 30  1  0
 29 31  1  0
 31 32  1  1
 31 33  1  0
 33 34  1  1
 30 35  1  0
 33 35  1  0
 35 36  1  6
 36 37  2  0
 37 38  1  0
 38 39  1  0
 39 40  2  0
 39 41  1  0
 38 42  2  0
 42 43  1  0
 36 44  1  0
 43 44  2  0
M  CHG  2  26  -1  36   1
M  END
$$$$
