1Q4G_BFL_B_1701
     RDKit          3D

 17 18  0  0  0  0  0  0  0  0999 V2000
   46.7170   37.0108  185.5599 C   0  0  0  0  0  0  0  0  0  0  0  0
   51.0333   34.6535  184.5011 C   0  0  0  0  0  0  0  0  0  0  0  0
   50.7206   34.3183  185.8221 C   0  0  0  0  0  0  0  0  0  0  0  0
   49.5389   34.7693  186.4116 C   0  0  0  0  0  0  0  0  0  0  0  0
   43.8082   37.4317  187.9408 C   0  0  1  0  0  0  0  0  0  0  0  0
   43.2860   36.5946  189.0272 C   0  0  0  0  0  0  0  0  0  0  0  0
   44.0507   38.8429  188.4958 C   0  0  0  0  0  0  0  0  0  0  0  0
   45.5504   37.4329  186.1450 C   0  0  0  0  0  0  0  0  0  0  0  0
   45.0763   36.9431  187.3487 C   0  0  0  0  0  0  0  0  0  0  0  0
   45.8406   35.9651  187.9895 C   0  0  0  0  0  0  0  0  0  0  0  0
   47.0188   35.5393  187.3979 C   0  0  0  0  0  0  0  0  0  0  0  0
   47.4574   36.0527  186.1969 C   0  0  0  0  0  0  0  0  0  0  0  0
   48.7229   35.5401  185.6418 C   0  0  0  0  0  0  0  0  0  0  0  0
   49.0205   35.8800  184.3312 C   0  0  0  0  0  0  0  0  0  0  0  0
   50.1774   35.4440  183.7399 C   0  0  0  0  0  0  0  0  0  0  0  0
   42.1346   35.8295  188.8353 O   0  0  0  0  0  0  0  0  0  0  0  0
   43.8652   36.5431  190.1681 O   0  0  0  0  0  0  0  0  0  0  0  0
  2  3  2  0
  3  4  1  0
  5  6  1  0
  5  7  1  1
  1  8  2  0
  5  9  1  0
  8  9  1  0
  9 10  2  0
 10 11  1  0
  1 12  1  0
 11 12  2  0
  4 13  2  0
 12 13  1  0
 13 14  1  0
  2 15  1  0
 14 15  2  0
  6 16  1  0
  6 17  2  0
M  END
$$$$
