1Q4G_BFL_B_1701
     RDKit          3D

 17 18  0  0  0  0  0  0  0  0999 V2000
   49.0915   39.7218  177.0121 C   0  0  0  0  0  0  0  0  0  0  0  0
   48.4764   34.7330  177.2463 C   0  0  0  0  0  0  0  0  0  0  0  0
   49.8292   34.9591  176.9747 C   0  0  0  0  0  0  0  0  0  0  0  0
   50.3044   36.2512  176.7466 C   0  0  0  0  0  0  0  0  0  0  0  0
   51.2048   42.6246  175.8226 C   0  0  1  0  0  0  0  0  0  0  0  0
   50.1276   43.5915  175.5808 C   0  0  0  0  0  0  0  0  0  0  0  0
   52.0035   43.0919  177.0483 C   0  0  0  0  0  0  0  0  0  0  0  0
   49.5617   40.9847  176.7559 C   0  0  0  0  0  0  0  0  0  0  0  0
   50.7382   41.2404  176.0747 C   0  0  0  0  0  0  0  0  0  0  0  0
   51.4751   40.1399  175.6307 C   0  0  0  0  0  0  0  0  0  0  0  0
   50.9995   38.8647  175.8897 C   0  0  0  0  0  0  0  0  0  0  0  0
   49.8216   38.6517  176.5720 C   0  0  0  0  0  0  0  0  0  0  0  0
   49.3929   37.2604  176.8024 C   0  0  0  0  0  0  0  0  0  0  0  0
   48.0491   37.0505  177.0706 C   0  0  0  0  0  0  0  0  0  0  0  0
   47.5689   35.7870  177.2964 C   0  0  0  0  0  0  0  0  0  0  0  0
   49.9688   44.1678  174.3196 O   0  0  0  0  0  0  0  0  0  0  0  0
   49.3127   43.9293  176.5089 O   0  0  0  0  0  0  0  0  0  0  0  0
  2  3  2  0
  3  4  1  0
  5  6  1  0
  5  7  1  1
  1  8  2  0
  5  9  1  0
  8  9  1  0
  9 10  2  0
 10 11  1  0
  1 12  1  0
 11 12  2  0
  4 13  2  0
 12 13  1  0
 13 14  1  0
  2 15  1  0
 14 15  2  0
  6 16  1  0
  6 17  2  0
M  END
$$$$
