1Q4G_BFL_B_1701
     RDKit          3D

 17 18  0  0  0  0  0  0  0  0999 V2000
   50.7002   33.7733  188.2986 C   0  0  0  0  0  0  0  0  0  0  0  0
   51.6477   38.1931  190.6402 C   0  0  0  0  0  0  0  0  0  0  0  0
   51.7099   36.8657  191.0750 C   0  0  0  0  0  0  0  0  0  0  0  0
   51.4235   35.8153  190.2020 C   0  0  0  0  0  0  0  0  0  0  0  0
   49.8432   32.1539  184.9895 C   0  0  1  0  0  0  0  0  0  0  0  0
   49.2190   32.6790  183.7695 C   0  0  0  0  0  0  0  0  0  0  0  0
   51.1484   31.4470  184.5953 C   0  0  0  0  0  0  0  0  0  0  0  0
   50.4005   32.8534  187.3262 C   0  0  0  0  0  0  0  0  0  0  0  0
   50.1640   33.1856  186.0044 C   0  0  0  0  0  0  0  0  0  0  0  0
   50.2385   34.5370  185.6589 C   0  0  0  0  0  0  0  0  0  0  0  0
   50.5413   35.4655  186.6415 C   0  0  0  0  0  0  0  0  0  0  0  0
   50.7708   35.0940  187.9483 C   0  0  0  0  0  0  0  0  0  0  0  0
   51.0863   36.1502  188.9267 C   0  0  0  0  0  0  0  0  0  0  0  0
   51.0208   37.4618  188.4824 C   0  0  0  0  0  0  0  0  0  0  0  0
   51.2994   38.5029  189.3289 C   0  0  0  0  0  0  0  0  0  0  0  0
   47.8469   32.5313  183.5611 O   0  0  0  0  0  0  0  0  0  0  0  0
   49.9074   33.2803  182.8728 O   0  0  0  0  0  0  0  0  0  0  0  0
  2  3  2  0
  3  4  1  0
  5  6  1  0
  5  7  1  6
  1  8  2  0
  5  9  1  0
  8  9  1  0
  9 10  2  0
 10 11  1  0
  1 12  1  0
 11 12  2  0
  4 13  2  0
 12 13  1  0
 13 14  1  0
  2 15  1  0
 14 15  2  0
  6 16  1  0
  6 17  2  0
M  END
$$$$
