7DUA_HJ0_B_1101
     RDKit          3D

 40 43  0  0  0  0  0  0  0  0999 V2000
   -3.1274    5.0631    0.8042 C   0  0  0  0  0  0  0  0  0  0  0  0
   -3.4607    3.0587    2.3150 C   0  0  0  0  0  0  0  0  0  0  0  0
   -3.7176    1.7912    1.8302 C   0  0  0  0  0  0  0  0  0  0  0  0
   -3.0831    0.9641    2.7339 C   0  0  0  0  0  0  0  0  0  0  0  0
   -2.9798   -0.5227    2.6431 C   0  0  0  0  0  0  0  0  0  0  0  0
   -1.2675    5.0090   -0.9247 C   0  0  0  0  0  0  0  0  0  0  0  0
    0.9539    1.6899    1.0553 C   0  0  0  0  0  0  0  0  0  0  0  0
   -1.1936    2.5179    1.6939 C   0  0  0  0  0  0  0  0  0  0  0  0
   -1.0987    3.4611    0.6610 C   0  0  0  0  0  0  0  0  0  0  0  0
    1.6651    5.8989   -2.1916 C   0  0  0  0  0  0  0  0  0  0  0  0
    0.4161    4.0629   -3.5704 C   0  0  0  0  0  0  0  0  0  0  0  0
   -3.4919    6.2259    0.4828 O   0  0  0  0  0  0  0  0  0  0  0  0
   -3.9182    4.2756    1.7088 N   0  0  0  0  0  0  0  0  0  0  0  0
   -2.4783    1.7133    3.6746 N   0  0  0  0  0  4  0  0  0  0  0  0
   -2.7073    2.9937    3.4314 N   0  0  0  0  0  0  0  0  0  0  0  0
   -1.9165    4.4874    0.1937 C   0  0  0  0  0  0  0  0  0  0  0  0
   -0.0890    4.3757   -1.1223 N   0  0  0  0  0  4  0  0  0  0  0  0
   -0.0041    3.4404   -0.1609 C   0  0  0  0  0  0  0  0  0  0  0  0
    1.0225    2.5743    0.0199 N   0  0  0  0  0  0  0  0  0  0  0  0
   -0.1451    1.6605    1.8693 N   0  0  0  0  0  0  0  0  0  0  0  0
   -2.3694    2.3581    2.4883 N   0  0  0  0  0  0  0  0  0  0  0  0
    0.8520    4.6063   -2.2182 C   0  0  2  0  0  0  0  0  0  0  0  0
    1.5143    3.3567   -2.7796 C   0  0  0  0  0  0  0  0  0  0  0  0
   -4.2743    1.5137    0.9448 H   0  0  0  0  0  0  0  0  0  0  0  0
   -2.0873   -0.7949    2.0425 H   0  0  0  0  0  0  0  0  0  0  0  0
   -2.8834   -0.9588    3.6595 H   0  0  0  0  0  0  0  0  0  0  0  0
   -3.8880   -0.9397    2.1594 H   0  0  0  0  0  0  0  0  0  0  0  0
   -1.6179    5.8354   -1.5302 H   0  0  0  0  0  0  0  0  0  0  0  0
    1.7646    0.9942    1.2218 H   0  0  0  0  0  0  0  0  0  0  0  0
    0.9752    6.7684   -2.2035 H   0  0  0  0  0  0  0  0  0  0  0  0
    2.3466    5.9715   -3.0661 H   0  0  0  0  0  0  0  0  0  0  0  0
    2.2711    5.9329   -1.2625 H   0  0  0  0  0  0  0  0  0  0  0  0
    0.7903    4.6177   -4.4571 H   0  0  0  0  0  0  0  0  0  0  0  0
   -0.5473    3.5097   -3.5800 H   0  0  0  0  0  0  0  0  0  0  0  0
   -4.8894    4.5924    1.9291 H   0  0  0  0  0  0  0  0  0  0  0  0
   -1.9056    1.3612    4.4735 H   0  0  0  0  0  0  0  0  0  0  0  0
   -3.3000    2.6857    2.1528 H   0  0  0  0  0  0  0  0  0  0  0  0
   -2.3483    1.7297    3.3218 H   0  0  0  0  0  0  0  0  0  0  0  0
    1.1868    2.3923   -2.3355 H   0  0  0  0  0  0  0  0  0  0  0  0
    2.5302    3.4976   -3.2060 H   0  0  0  0  0  0  0  0  0  0  0  0
  2  3  4  0
  3  4  4  0
  4  5  1  0
  8  9  4  0
  1 12  2  0
  2 13  1  0
  1 13  1  0
  4 14  4  0
 14 15  4  0
  2 15  4  0
  6 16  4  0
  1 16  1  0
  9 16  4  0
  6 17  4  0
 17 18  4  0
  9 18  4  0
 18 19  4  0
  7 19  4  0
  8 20  4  0
  7 20  4  0
  8 21  1  0
 11 22  1  0
 17 22  1  0
 22 10  1  1
 11 23  1  0
 22 23  1  0
  3 24  1  0
  5 25  1  0
  5 26  1  0
  5 27  1  0
  6 28  1  0
  7 29  1  0
 10 30  1  0
 10 31  1  0
 10 32  1  0
 11 33  1  0
 11 34  1  0
 13 35  1  0
 14 36  1  0
 21 37  1  0
 21 38  1  0
 23 39  1  0
 23 40  1  0
M  CHG  2  14   1  17   1
M  END
