7K41_VUA_A_2602
     RDKit          3D

 22 24  0  0  0  0  0  0  0  0999 V2000
  -11.8469   11.4369    6.2550 N   0  0  0  0  0  0  0  0  0  0  0  0
   -9.9000    7.8114    7.0807 N   0  0  0  0  0  0  0  0  0  0  0  0
  -15.8226   14.2366    6.6271 C   0  0  0  0  0  0  0  0  0  0  0  0
  -17.4268   12.5423    7.0067 C   0  0  0  0  0  0  0  0  0  0  0  0
   -9.8459   10.2674    6.8483 C   0  0  0  0  0  0  0  0  0  0  0  0
  -10.5234   11.4575    6.5760 C   0  0  0  0  0  0  0  0  0  0  0  0
  -16.0847   12.9144    6.8897 C   0  0  0  0  0  0  0  0  0  0  0  0
  -12.4827   10.2308    6.2080 C   0  0  0  0  0  0  0  0  0  0  0  0
   -8.4550    7.7221    7.3326 C   0  0  0  0  0  0  0  0  0  0  0  0
   -8.4924    5.2651    7.4556 C   0  0  2  0  0  0  0  0  0  0  0  0
  -15.0422   11.8790    7.0381 C   0  0  0  0  0  0  0  0  0  0  0  0
  -18.1880   14.7912    6.6023 C   0  0  0  0  0  0  0  0  0  0  0  0
  -16.8615   15.1473    6.4883 C   0  0  0  0  0  0  0  0  0  0  0  0
  -18.4515   13.4605    6.8664 C   0  0  0  0  0  0  0  0  0  0  0  0
  -10.5037    9.0622    6.7953 C   0  0  0  0  0  0  0  0  0  0  0  0
   -8.1736    6.5260    8.2175 C   0  0  0  0  0  0  0  0  0  0  0  0
   -9.7640    5.3884    6.6927 C   0  0  0  0  0  0  0  0  0  0  0  0
  -10.6267    6.5630    7.1195 C   0  0  0  0  0  0  0  0  0  0  0  0
   -8.5390    4.1280    8.4533 C   0  0  0  0  0  0  0  0  0  0  0  0
  -14.7810   11.1781    5.7047 C   0  0  0  0  0  0  0  0  0  0  0  0
  -11.8039    9.0750    6.4766 N   0  0  0  0  0  0  0  0  0  0  0  0
  -13.8581   10.0991    5.9254 N   0  0  0  0  0  0  0  0  0  0  0  0
  5  6  1  0
  1  6  2  0
  4  7  1  0
  3  7  2  0
  1  8  1  0
  2  9  1  0
  7 11  1  0
 12 13  2  0
  3 13  1  0
  4 14  2  0
 12 14  1  0
  2 15  1  0
  5 15  2  0
 10 16  1  0
  9 16  1  0
 10 17  1  0
 17 18  1  0
  2 18  1  0
 10 19  1  1
 11 20  1  0
 15 21  1  0
  8 21  2  0
 20 22  1  0
  8 22  1  0
M  END
$$$$
