7OLT_58J_A_402
     RDKit          3D

 23 25  0  0  0  0  0  0  0  0999 V2000
  -22.1606  -21.8770   -2.0137 C   0  0  0  0  0  0  0  0  0  0  0  0
  -21.5344  -23.0040   -4.2323 C   0  0  0  0  0  0  0  0  0  0  0  0
  -20.4621  -23.2657   -4.9274 C   0  0  0  0  0  0  0  0  0  0  0  0
  -18.7076  -21.9721   -3.8966 C   0  0  0  0  0  0  0  0  0  0  0  0
  -16.7831  -23.8084   -4.4380 C   0  0  0  0  0  0  0  0  0  0  0  0
  -22.8192  -22.9194   -4.9978 C   0  0  0  0  0  0  0  0  0  0  0  0
  -26.0403  -20.2309   -2.4373 C   0  0  0  0  0  0  0  0  0  0  0  0
  -14.9062  -21.1686   -2.6237 C   0  0  0  0  0  0  0  0  0  0  0  0
  -22.8514  -23.6199   -6.0664 O   0  0  0  0  0  0  0  0  0  0  0  0
  -23.9914  -22.1595   -4.6812 N   0  0  0  0  0  0  0  0  0  0  0  0
  -24.2938  -21.4857   -3.4485 C   0  0  0  0  0  0  0  0  0  0  0  0
  -23.5169  -21.3536   -2.2934 C   0  0  0  0  0  0  0  0  0  0  0  0
  -25.5539  -20.9247   -3.5191 C   0  0  0  0  0  0  0  0  0  0  0  0
  -25.2690  -20.0953   -1.2812 C   0  0  0  0  0  0  0  0  0  0  0  0
  -24.0044  -20.6550   -1.2026 C   0  0  0  0  0  0  0  0  0  0  0  0
  -21.4809  -22.8528   -2.8262 N   0  0  0  0  0  0  0  0  0  0  0  0
  -20.6699  -23.7914   -2.0681 C   0  0  0  0  0  0  0  0  0  0  0  0
  -21.5578  -21.4556   -1.0133 O   0  0  0  0  0  0  0  0  0  0  0  0
  -19.0780  -23.1308   -4.5903 C   0  0  0  0  0  0  0  0  0  0  0  0
  -18.0806  -24.0256   -4.8406 C   0  0  0  0  0  0  0  0  0  0  0  0
  -16.4643  -22.6521   -3.7572 C   0  0  0  0  0  0  0  0  0  0  0  0
  -15.1760  -22.3724   -3.3246 O   0  0  0  0  0  0  0  0  0  0  0  0
  -17.4391  -21.7182   -3.4810 C   0  0  0  0  0  0  0  0  0  0  0  0
  2  3  2  0
  2  6  1  0
  6  9  2  0
  6 10  1  0
 10 11  1  0
 11 12  2  0
  1 12  1  0
  7 13  2  0
 11 13  1  0
  7 14  1  0
 14 15  2  0
 12 15  1  0
  2 16  1  0
  1 16  1  0
 17 16  1  6
  1 18  2  0
  3 19  1  0
  4 19  2  0
 19 20  1  0
  5 20  2  0
  5 21  1  0
 21 22  1  0
  8 22  1  6
  4 23  1  0
 21 23  2  0
M  END
$$$$
