7VBU_6I4_A_507
     RDKit          3D

 17 20  0  0  0  0  0  0  0  0999 V2000
   39.9579   35.9979   88.2731 C   0  0  0  0  0  0  0  0  0  0  0  0
   40.1954   34.8169   87.5843 C   0  0  0  0  0  0  0  0  0  0  0  0
   39.4191   33.6926   87.8516 C   0  0  0  0  0  0  0  0  0  0  0  0
   38.9663   36.1045   89.2286 C   0  0  0  0  0  0  0  0  0  0  0  0
   38.1904   34.9713   89.4919 C   0  0  0  0  0  0  0  0  0  0  0  0
   38.4247   33.7959   88.8083 C   0  0  0  0  0  0  0  0  0  0  0  0
   38.6663   37.3204   89.9887 C   0  0  1  0  0  0  0  0  0  0  0  0
   39.8827   38.0310   90.6384 C   0  0  0  0  0  0  0  0  0  0  0  0
   39.1841   38.6302   89.4520 C   0  0  0  0  0  0  0  0  0  0  0  0
   36.7639   33.4660   90.2063 C   0  0  0  0  0  0  0  0  0  0  0  0
   37.5390   32.8272   89.2384 C   0  0  0  0  0  0  0  0  0  0  0  0
   37.3261   31.5035   88.9075 C   0  0  0  0  0  0  0  0  0  0  0  0
   36.3244   30.7964   89.5484 C   0  0  0  0  0  0  0  0  0  0  0  0
   35.5732   31.4521   90.5011 C   0  0  0  0  0  0  0  0  0  0  0  0
   34.4862   30.7137   91.2080 C   0  0  0  0  0  0  0  0  0  0  0  0
   35.8005   32.7409   90.8048 N   0  0  0  0  0  0  0  0  0  0  0  0
   37.1663   34.7437   90.3444 N   0  0  0  0  0  0  0  0  0  0  0  0
  1  2  2  0
  2  3  1  0
  1  4  1  0
  4  5  2  0
  5  6  1  0
  3  6  2  0
  7  4  1  6
  7  8  1  0
  8  9  1  1
  9  7  1  6
 10 11  2  0
  6 11  1  0
 11 12  1  0
 12 13  2  0
 13 14  1  0
 15 14  1  6
 10 16  1  0
 14 16  2  0
 10 17  1  0
  5 17  1  0
M  END
$$$$
