7THI_PGA_A_301
     RDKit          3D

 14 13  0  0  0  0  0  0  0  0999 V2000
   -0.9092   -0.3343    0.8567 P   0  0  0  0  0  5  0  0  0  0  0  0
    0.7770   -0.1607    0.6642 O   0  0  0  0  0  0  0  0  0  0  0  0
   -1.4450    0.7618    1.7509 O   0  0  0  0  0  0  0  0  0  0  0  0
   -1.2304   -1.8350    1.5690 O   0  0  0  0  0  0  0  0  0  0  0  0
   -1.6835   -0.2630   -0.6469 O   0  0  0  0  0  0  0  0  0  0  0  0
    1.0250    1.0524   -0.0037 C   0  0  0  0  0  0  0  0  0  0  0  0
    2.4992    1.2195   -0.1626 C   0  0  0  0  0  0  0  0  0  0  0  0
    3.1756    1.7590    0.7535 O   0  0  0  0  0  0  0  0  0  0  0  0
    3.1331    0.7343   -1.3021 O   0  0  0  0  0  0  0  0  0  0  0  0
   -0.6870   -1.8429    2.3971 H   0  0  0  0  0  0  0  0  0  0  0  0
   -1.2892   -1.0074   -1.1678 H   0  0  0  0  0  0  0  0  0  0  0  0
    0.6327    1.9180    0.5773 H   0  0  0  0  0  0  0  0  0  0  0  0
    0.5657    1.0496   -1.0175 H   0  0  0  0  0  0  0  0  0  0  0  0
    4.1355    0.8245   -1.4170 H   0  0  0  0  0  0  0  0  0  0  0  0
  1  2  1  0
  1  3  2  0
  1  4  1  0
  1  5  1  0
  2  6  1  0
  6  7  1  0
  7  8  2  0
  7  9  1  0
  4 10  1  0
  5 11  1  0
  6 12  1  0
  6 13  1  0
  9 14  1  0
M  END
