7PK0_BYC_A_402
     RDKit          3D

 96 99  0  0  0  0  0  0  0  0999 V2000
    1.5811   -2.9357    5.3655 N   0  0  0  0  0  0  0  0  0  0  0  0
    2.0956    1.0115   -4.3269 O   0  0  0  0  0  0  0  0  0  0  0  0
    1.4719   -0.3507   -4.5340 P   0  0  2  0  0  5  0  0  0  0  0  0
    0.4596    6.5998    0.5418 C   0  0  0  0  0  0  0  0  0  0  0  0
    3.0280   -2.8864    0.4283 C   0  0  1  0  0  0  0  0  0  0  0  0
   -0.7233    7.5421    1.5198 S   0  0  0  0  0  0  0  0  0  0  0  0
    2.1407   -3.9470    4.6247 C   0  0  0  0  0  0  0  0  0  0  0  0
    1.3136   -0.6313   -6.1961 O   0  0  0  0  0  0  0  0  0  0  0  0
   -0.8669   -1.8081   -4.2620 P   0  0  1  0  0  5  0  0  0  0  0  0
    1.4751    5.7445    1.1908 C   0  0  0  0  0  0  0  0  0  0  0  0
    1.8361   -3.5100   -0.2796 C   0  0  2  0  0  0  0  0  0  0  0  0
    1.4193   -4.7376    0.2768 O   0  0  0  0  0  0  0  0  0  0  0  0
   -2.0826    6.3370    1.3389 C   0  0  0  0  0  0  0  0  0  0  0  0
    2.5067   -3.7356    3.3223 N   0  0  0  0  0  0  0  0  0  0  0  0
   -0.0532   -0.3842   -3.7779 O   0  0  0  0  0  0  0  0  0  0  0  0
    2.0145    4.6431    0.5049 C   0  0  0  0  0  0  0  0  0  0  0  0
    2.3080   -3.6219   -1.7088 C   0  0  2  0  0  0  0  0  0  0  0  0
    2.9802   -4.8549   -1.9084 O   0  0  0  0  0  0  0  0  0  0  0  0
    2.7450   -5.3915   -3.5125 P   0  0  0  0  0  5  0  0  0  0  0  0
   -1.7740    5.0018    2.0329 C   0  0  0  0  0  0  0  0  0  0  0  0
    2.3095   -2.4985    2.8056 C   0  0  0  0  0  0  0  0  0  0  0  0
   -1.7007   -1.4799   -5.6977 O   0  0  0  0  0  0  0  0  0  0  0  0
    2.9339    3.8008    1.1377 C   0  0  0  0  0  0  0  0  0  0  0  0
    3.3111   -2.4595   -1.8001 C   0  0  2  0  0  0  0  0  0  0  0  0
    3.7196   -2.0794   -0.4990 O   0  0  0  0  0  0  0  0  0  0  0  0
   -2.9756    4.1712    2.1147 N   0  0  0  0  0  0  0  0  0  0  0  0
    0.3997    6.6699   -0.7152 O   0  0  0  0  0  0  0  0  0  0  0  0
    0.0905   -2.9537   -4.5057 O   0  0  0  0  0  0  0  0  0  0  0  0
    3.3494    4.0674    2.4469 C   0  0  0  0  0  0  0  0  0  0  0  0
    2.7022   -1.2402   -2.5004 C   0  0  0  0  0  0  0  0  0  0  0  0
    2.4794   -1.5487   -3.8579 O   0  0  0  0  0  0  0  0  0  0  0  0
    1.7620   -1.4867    3.5168 C   0  0  0  0  0  0  0  0  0  0  0  0
   -3.6221    3.6245    0.9572 C   0  0  0  0  0  0  0  0  0  0  0  0
   -3.1409    3.8280   -0.1949 O   0  0  0  0  0  0  0  0  0  0  0  0
    1.3785   -1.6930    4.8353 C   0  0  0  0  0  0  0  0  0  0  0  0
    0.7780   -0.6560    5.6166 N   0  0  0  0  0  0  0  0  0  0  0  0
   -1.9939   -2.3123   -3.0800 O   0  0  0  0  0  0  0  0  0  0  0  0
    2.8292    5.1682    3.1335 C   0  0  0  0  0  0  0  0  0  0  0  0
   -4.9261    2.8890    1.1064 C   0  0  0  0  0  0  0  0  0  0  0  0
    1.6462   -0.3827    2.7545 N   0  0  0  0  0  0  0  0  0  0  0  0
    1.1053   -5.7423   -3.7637 O   0  0  0  0  0  0  0  0  0  0  0  0
    1.8962    6.0015    2.5098 C   0  0  0  0  0  0  0  0  0  0  0  0
   -5.0558    1.6942    0.1581 C   0  0  0  0  0  0  0  0  0  0  0  0
    2.1524   -0.7911    1.5564 C   0  0  0  0  0  0  0  0  0  0  0  0
    3.1872   -4.3256   -4.4909 O   0  0  0  0  0  0  0  0  0  0  0  0
   -4.3790    0.5138    0.6958 N   0  0  0  0  0  0  0  0  0  0  0  0
    2.5771   -2.0823    1.5636 N   0  0  0  0  0  0  0  0  0  0  0  0
    3.6646   -6.7912   -3.7618 O   0  0  0  0  0  0  0  0  0  0  0  0
   -3.0145    0.1918    0.3968 C   0  0  0  0  0  0  0  0  0  0  0  0
   -2.2371    1.0805   -0.0481 O   0  0  0  0  0  0  0  0  0  0  0  0
   -2.5236   -1.2294    0.5514 C   0  0  2  0  0  0  0  0  0  0  0  0
   -1.1705   -1.2170    0.9432 O   0  0  0  0  0  0  0  0  0  0  0  0
   -2.7040   -2.0894   -0.7513 C   0  0  0  0  0  0  0  0  0  0  0  0
   -1.7878   -1.5689   -1.8967 C   0  0  0  0  0  0  0  0  0  0  0  0
   -2.3245   -3.5539   -0.4231 C   0  0  0  0  0  0  0  0  0  0  0  0
   -4.1777   -2.0701   -1.2209 C   0  0  0  0  0  0  0  0  0  0  0  0
    3.7334   -3.6678    0.7820 H   0  0  0  0  0  0  0  0  0  0  0  0
    2.2835   -4.9198    5.0771 H   0  0  0  0  0  0  0  0  0  0  0  0
    0.6886    0.0688   -6.5135 H   0  0  0  0  0  0  0  0  0  0  0  0
    0.9768   -2.8060   -0.2416 H   0  0  0  0  0  0  0  0  0  0  0  0
    2.2137   -5.3215    0.3925 H   0  0  0  0  0  0  0  0  0  0  0  0
   -2.2801    6.1735    0.2558 H   0  0  0  0  0  0  0  0  0  0  0  0
   -2.9928    6.7867    1.7948 H   0  0  0  0  0  0  0  0  0  0  0  0
    1.6943    4.4091   -0.5024 H   0  0  0  0  0  0  0  0  0  0  0  0
    1.4166   -3.4910   -2.3666 H   0  0  0  0  0  0  0  0  0  0  0  0
   -0.9795    4.4426    1.4899 H   0  0  0  0  0  0  0  0  0  0  0  0
   -1.4026    5.2071    3.0652 H   0  0  0  0  0  0  0  0  0  0  0  0
   -2.4656   -0.9200   -5.4180 H   0  0  0  0  0  0  0  0  0  0  0  0
    3.3222    2.9359    0.6156 H   0  0  0  0  0  0  0  0  0  0  0  0
    4.2093   -2.7807   -2.3733 H   0  0  0  0  0  0  0  0  0  0  0  0
   -3.3644    3.9576    3.0609 H   0  0  0  0  0  0  0  0  0  0  0  0
    4.0616    3.4175    2.9357 H   0  0  0  0  0  0  0  0  0  0  0  0
    1.7623   -0.9702   -1.9648 H   0  0  0  0  0  0  0  0  0  0  0  0
    3.4194   -0.3933   -2.4229 H   0  0  0  0  0  0  0  0  0  0  0  0
    0.6080    0.2897    5.2075 H   0  0  0  0  0  0  0  0  0  0  0  0
    0.4802   -0.8427    6.5990 H   0  0  0  0  0  0  0  0  0  0  0  0
    3.1483    5.3754    4.1499 H   0  0  0  0  0  0  0  0  0  0  0  0
   -5.0560    2.5431    2.1545 H   0  0  0  0  0  0  0  0  0  0  0  0
   -5.7496    3.6059    0.8926 H   0  0  0  0  0  0  0  0  0  0  0  0
    1.0940   -6.3065   -4.5779 H   0  0  0  0  0  0  0  0  0  0  0  0
    1.5038    6.8435    3.0647 H   0  0  0  0  0  0  0  0  0  0  0  0
   -4.6891    1.9284   -0.8661 H   0  0  0  0  0  0  0  0  0  0  0  0
   -6.1376    1.4635    0.0540 H   0  0  0  0  0  0  0  0  0  0  0  0
    2.1764   -0.1575    0.6811 H   0  0  0  0  0  0  0  0  0  0  0  0
   -4.9778   -0.2146    1.1362 H   0  0  0  0  0  0  0  0  0  0  0  0
    3.3734   -7.4062   -3.0449 H   0  0  0  0  0  0  0  0  0  0  0  0
   -3.1354   -1.7023    1.3568 H   0  0  0  0  0  0  0  0  0  0  0  0
   -1.1421   -1.3161    1.9321 H   0  0  0  0  0  0  0  0  0  0  0  0
   -0.7266   -1.6520   -1.5690 H   0  0  0  0  0  0  0  0  0  0  0  0
   -2.0237   -0.4997   -2.0909 H   0  0  0  0  0  0  0  0  0  0  0  0
   -2.9809   -3.9508    0.3810 H   0  0  0  0  0  0  0  0  0  0  0  0
   -1.2696   -3.6258   -0.0821 H   0  0  0  0  0  0  0  0  0  0  0  0
   -2.4437   -4.2097   -1.3151 H   0  0  0  0  0  0  0  0  0  0  0  0
   -4.4644   -1.0635   -1.5960 H   0  0  0  0  0  0  0  0  0  0  0  0
   -4.3421   -2.7886   -2.0521 H   0  0  0  0  0  0  0  0  0  0  0  0
   -4.8612   -2.3550   -0.3925 H   0  0  0  0  0  0  0  0  0  0  0  0
  2  3  2  0
  4  6  1  0
  1  7  2  0
  3  8  1  6
  4 10  1  0
  5 11  1  0
 11 12  1  0
  6 13  1  0
  7 14  1  0
  3 15  1  0
  9 15  1  1
 10 16  2  0
 11 17  1  0
 17 18  1  0
 18 19  1  0
 13 20  1  0
 14 21  2  0
  9 22  1  0
 16 23  1  0
 17 24  1  0
  5 25  1  0
 24 25  1  0
 20 26  1  0
  4 27  2  0
  9 28  2  0
 23 29  2  0
 24 30  1  0
  3 31  1  0
 30 31  1  0
 21 32  1  0
 26 33  1  0
 33 34  2  0
  1 35  1  0
 32 35  2  0
 35 36  1  0
  9 37  1  0
 29 38  1  0
 33 39  1  0
 32 40  1  0
 19 41  1  0
 10 42  1  0
 38 42  2  0
 39 43  1  0
 40 44  2  0
 19 45  2  0
 43 46  1  0
  5 47  1  0
 21 47  1  0
 44 47  1  0
 19 48  1  0
 46 49  1  0
 49 50  2  0
 49 51  1  0
 51 52  1  0
 51 53  1  0
 37 54  1  0
 53 54  1  0
 53 55  1  0
 53 56  1  0
  5 57  1  1
  7 58  1  0
  8 59  1  0
 11 60  1  6
 12 61  1  0
 13 62  1  0
 13 63  1  0
 16 64  1  0
 17 65  1  6
 20 66  1  0
 20 67  1  0
 22 68  1  0
 23 69  1  0
 24 70  1  6
 26 71  1  0
 29 72  1  0
 30 73  1  0
 30 74  1  0
 36 75  1  0
 36 76  1  0
 38 77  1  0
 39 78  1  0
 39 79  1  0
 41 80  1  0
 42 81  1  0
 43 82  1  0
 43 83  1  0
 44 84  1  0
 46 85  1  0
 48 86  1  0
 51 87  1  1
 52 88  1  0
 54 89  1  0
 54 90  1  0
 55 91  1  0
 55 92  1  0
 55 93  1  0
 56 94  1  0
 56 95  1  0
 56 96  1  0
M  END
