7ZXZ_K9R_B_201
     RDKit          3D

 33 36  0  0  0  0  0  0  0  0999 V2000
   36.9954  -13.2696   -5.6105 N   0  0  0  0  0  0  0  0  0  0  0  0
   41.4843  -13.1871   -1.8512 C   0  0  0  0  0  0  0  0  0  0  0  0
   42.6630  -13.1170   -0.9117 C   0  0  0  0  0  0  0  0  0  0  0  0
   43.0258  -11.0257    0.2249 N   0  0  0  0  0  0  0  0  0  0  0  0
   42.4096  -12.2144    0.2682 C   0  0  0  0  0  0  0  0  0  0  0  0
   40.4358  -10.5832    1.2656 O   0  0  0  0  0  0  0  0  0  0  0  0
   37.8196  -14.8950   -4.1303 C   0  0  2  0  0  0  0  0  0  0  0  0
   39.8686  -15.0540   -2.5347 C   0  0  0  0  0  0  0  0  0  0  0  0
   41.2894  -14.5981   -2.4398 C   0  0  0  0  0  0  0  0  0  0  0  0
   39.3453  -15.1913   -3.9683 C   0  0  2  0  0  0  0  0  0  0  0  0
   38.8061  -14.7026   -6.4358 C   0  0  0  0  0  0  0  0  0  0  0  0
   41.7816  -12.6129    1.2697 O   0  0  0  0  0  0  0  0  0  0  0  0
   37.5058  -14.6194   -5.6428 C   0  0  2  0  0  0  0  0  0  0  0  0
   37.4143  -13.6358   -3.5133 N   0  0  0  0  0  0  0  0  0  0  0  0
   40.0918  -14.1716   -5.2522 S   0  0  0  0  0  0  0  0  0  0  0  0
   36.9446  -12.7341   -4.4046 C   0  0  0  0  0  0  0  0  0  0  0  0
   36.5021  -11.6358   -4.1271 O   0  0  0  0  0  0  0  0  0  0  0  0
   42.8318  -10.0401    1.2541 C   0  0  2  0  0  0  0  0  0  0  0  0
   43.7952  -10.1426    2.4519 C   0  0  0  0  0  0  0  0  0  0  0  0
   42.9397  -10.2511    3.6832 C   0  0  0  0  0  0  0  0  0  0  0  0
   43.3227  -10.1122    4.8343 O   0  0  0  0  0  0  0  0  0  0  0  0
   41.6197  -10.2567    3.3216 C   0  0  1  0  0  0  0  0  0  0  0  0
   41.4641  -10.3142    1.8564 C   0  0  0  0  0  0  0  0  0  0  0  0
   40.4662  -10.9535    4.0387 C   0  0  0  0  0  0  0  0  0  0  0  0
   39.2577  -10.2905    4.2175 C   0  0  0  0  0  0  0  0  0  0  0  0
   38.2222  -10.8574    4.9560 C   0  0  0  0  0  0  0  0  0  0  0  0
   36.8982  -10.1499    5.0963 C   0  0  0  0  0  0  0  0  0  0  0  0
   36.9466   -8.4666    4.3794 S   0  0  0  0  0  0  0  0  0  0  0  0
   38.4234  -12.1090    5.5295 C   0  0  0  0  0  0  0  0  0  0  0  0
   39.6159  -12.8010    5.3489 C   0  0  0  0  0  0  0  0  0  0  0  0
   40.6260  -12.2171    4.5897 C   0  0  0  0  0  0  0  0  0  0  0  0
   39.8092  -14.1679    5.9461 C   0  0  0  0  0  0  0  0  0  0  0  0
   39.7895  -15.1991    4.4733 S   0  0  0  0  0  0  0  0  0  0  0  0
  2  3  1  0
  3  5  1  0
  4  5  1  0
  8  9  1  0
  2  9  1  0
  7 10  1  0
 10  8  1  1
  5 12  2  0
  1 13  1  0
 13 11  1  6
  7 13  1  0
  7 14  1  1
 11 15  1  0
 10 15  1  0
  1 16  1  0
 14 16  1  0
 16 17  2  0
 18  4  1  6
 18 19  1  0
 19 20  1  0
 20 21  2  0
 20 22  1  0
 18 23  1  0
 22 23  1  0
  6 23  2  0
 22 24  1  1
 24 25  2  0
 25 26  1  0
 26 27  1  0
 27 28  1  0
 26 29  2  0
 29 30  1  0
 24 31  1  0
 30 31  2  0
 30 32  1  0
 32 33  1  0
M  END
