7UAW_MF6_B_201
     RDKit          3D

 35 39  0  0  0  0  0  0  0  0999 V2000
  -21.0350   10.9420  -16.9980 C   0  0  2  0  0  0  0  0  0  0  0  0
  -21.3150    7.4000  -13.7500 C   0  0  1  0  0  0  0  0  0  0  0  0
  -21.6600    4.9990  -14.4840 C   0  0  0  0  0  0  0  0  0  0  0  0
  -17.1130    6.9560  -18.8280 C   0  0  0  0  0  0  0  0  0  0  0  0
  -19.2750    7.8300  -18.8130 C   0  0  0  0  0  0  0  0  0  0  0  0
  -18.2890    7.2650  -16.7590 C   0  0  0  0  0  0  0  0  0  0  0  0
  -17.1290    6.8700  -17.4030 C   0  0  0  0  0  0  0  0  0  0  0  0
  -16.8650    6.6070  -15.2500 C   0  0  0  0  0  0  0  0  0  0  0  0
  -19.0610    7.3420  -14.3570 C   0  0  2  0  0  0  0  0  0  0  0  0
  -20.3690    7.9400  -14.7570 C   0  0  2  0  0  0  0  0  0  0  0  0
  -21.3390   10.1790  -14.8240 C   0  0  2  0  0  0  0  0  0  0  0  0
  -22.3360   10.1800  -16.9320 C   0  0  1  0  0  0  0  0  0  0  0  0
  -20.9540   11.3970  -15.6150 C   0  0  2  0  0  0  0  0  0  0  0  0
  -20.8850    5.9530  -13.6160 C   0  0  1  0  0  0  0  0  0  0  0  0
  -22.3800    9.0760  -17.9450 C   0  0  0  0  0  0  0  0  0  0  0  0
  -15.9900    6.5610  -19.6510 N   0  0  0  0  0  0  0  0  0  0  0  0
  -18.1850    7.4450  -19.4720 N   0  0  0  0  0  0  0  0  0  0  0  0
  -19.2980    7.7390  -17.5110 N   0  0  0  0  0  0  0  0  0  0  0  0
  -16.2570    6.4550  -16.4350 N   0  0  0  0  0  0  0  0  0  0  0  0
  -18.1130    7.1090  -15.4230 N   0  0  0  0  0  0  0  0  0  0  0  0
  -20.2130    9.3630  -14.7420 O   0  0  0  0  0  0  0  0  0  0  0  0
  -22.3420    9.5640  -15.6470 O   0  0  0  0  0  0  0  0  0  0  0  0
  -21.1110   11.9750  -18.0030 O   0  0  0  0  0  0  0  0  0  0  0  0
  -21.8960   12.4700  -15.3760 O   0  0  0  0  0  0  0  0  0  0  0  0
  -21.0260    8.0040  -12.4860 O   0  0  0  0  0  0  0  0  0  0  0  0
  -21.2750    5.2550  -15.7990 O   0  0  0  0  0  0  0  0  0  0  0  0
  -21.3790    4.7200  -18.3920 O   0  0  0  0  0  0  0  0  0  0  0  0
  -23.2450    6.1450  -17.2080 O   0  0  0  0  0  0  0  0  0  0  0  0
  -23.4180    6.7310  -19.8560 O   0  0  0  0  0  0  0  0  0  0  0  0
  -23.7030    8.5370  -17.9630 O   0  0  0  0  0  0  0  0  0  0  0  0
  -25.3380    6.6150  -18.3880 O   0  0  0  0  0  0  0  0  0  0  0  0
  -23.0440    3.7550  -16.8260 O   0  0  0  0  0  0  0  0  0  0  0  0
  -19.4810    6.0220  -13.9760 O   0  0  0  0  0  0  0  0  0  0  0  0
  -22.1670    4.9250  -17.1190 P   0  0  2  0  0  0  0  0  0  0  0  0
  -23.8830    6.9690  -18.4470 P   0  0  2  0  0  0  0  0  0  0  0  0
  6  7  1  0
  4  7  2  0
  2 10  1  0
  9 10  1  0
  1 12  1  0
 11 13  1  0
  1 13  1  0
  2 14  1  0
 14  3  1  6
 12 15  1  6
  4 16  1  0
  4 17  1  0
  5 17  2  0
  6 18  2  0
  5 18  1  0
  8 19  2  0
  7 19  1  0
  9 20  1  6
  8 20  1  0
  6 20  1  0
 10 21  1  1
 11 21  1  6
 11 22  1  0
 12 22  1  0
  1 23  1  6
 13 24  1  6
  2 25  1  1
  3 26  1  0
 15 30  1  0
 14 33  1  0
  9 33  1  0
 26 34  1  0
 32 34  2  0
 28 34  1  0
 34 27  1  6
 28 35  1  0
 30 35  1  0
 31 35  2  0
 35 29  1  6
M  END
$$$$
7UAW_MF6_A_201
     RDKit          3D

 35 39  0  0  0  0  0  0  0  0999 V2000
   -9.1900   22.0330  -41.7790 C   0  0  2  0  0  0  0  0  0  0  0  0
   -5.7420   22.1600  -45.0130 C   0  0  1  0  0  0  0  0  0  0  0  0
   -3.3890   22.4130  -44.2210 C   0  0  0  0  0  0  0  0  0  0  0  0
   -5.5280   17.7700  -40.0740 C   0  0  0  0  0  0  0  0  0  0  0  0
   -6.2360   19.9590  -39.9480 C   0  0  0  0  0  0  0  0  0  0  0  0
   -5.7580   19.0580  -42.0700 C   0  0  0  0  0  0  0  0  0  0  0  0
   -5.4500   17.8490  -41.4870 C   0  0  0  0  0  0  0  0  0  0  0  0
   -5.1900   17.6490  -43.6370 C   0  0  0  0  0  0  0  0  0  0  0  0
   -5.7610   19.9090  -44.4460 C   0  0  2  0  0  0  0  0  0  0  0  0
   -6.3230   21.2250  -44.0230 C   0  0  2  0  0  0  0  0  0  0  0  0
   -8.4410   22.3210  -43.9360 C   0  0  2  0  0  0  0  0  0  0  0  0
   -8.3310   23.2960  -41.8140 C   0  0  1  0  0  0  0  0  0  0  0  0
   -9.6960   21.9860  -43.1520 C   0  0  2  0  0  0  0  0  0  0  0  0
   -4.2950   21.6570  -45.1310 C   0  0  1  0  0  0  0  0  0  0  0  0
   -7.2510   23.3170  -40.7630 C   0  0  0  0  0  0  0  0  0  0  0  0
   -5.2390   16.5230  -39.4030 N   0  0  0  0  0  0  0  0  0  0  0  0
   -5.9610   18.7950  -39.3560 N   0  0  0  0  0  0  0  0  0  0  0  0
   -6.1620   20.0570  -41.2560 N   0  0  0  0  0  0  0  0  0  0  0  0
   -5.1160   16.9650  -42.4870 N   0  0  0  0  0  0  0  0  0  0  0  0
   -5.6240   18.9080  -43.4110 N   0  0  0  0  0  0  0  0  0  0  0  0
   -7.7530   21.1140  -44.1010 O   0  0  0  0  0  0  0  0  0  0  0  0
   -7.7480   23.3060  -43.1340 O   0  0  0  0  0  0  0  0  0  0  0  0
  -10.2340   22.1440  -40.8020 O   0  0  0  0  0  0  0  0  0  0  0  0
  -10.6150   23.0810  -43.3140 O   0  0  0  0  0  0  0  0  0  0  0  0
   -6.3350   21.9060  -46.2860 O   0  0  0  0  0  0  0  0  0  0  0  0
   -3.6200   21.9190  -42.9500 O   0  0  0  0  0  0  0  0  0  0  0  0
   -3.0220   21.9160  -40.3940 O   0  0  0  0  0  0  0  0  0  0  0  0
   -4.3290   23.9210  -41.5250 O   0  0  0  0  0  0  0  0  0  0  0  0
   -4.9360   24.1890  -38.8910 O   0  0  0  0  0  0  0  0  0  0  0  0
   -6.6510   24.6030  -40.8050 O   0  0  0  0  0  0  0  0  0  0  0  0
   -4.6720   26.1060  -40.4060 O   0  0  0  0  0  0  0  0  0  0  0  0
   -1.8850   23.4600  -41.9540 O   0  0  0  0  0  0  0  0  0  0  0  0
   -4.3890   20.2590  -44.7620 O   0  0  0  0  0  0  0  0  0  0  0  0
   -3.1700   22.7460  -41.6470 P   0  0  2  0  0  0  0  0  0  0  0  0
   -5.0730   24.6730  -40.3090 P   0  0  2  0  0  0  0  0  0  0  0  0
  6  7  1  0
  4  7  2  0
  2 10  1  0
  9 10  1  0
  1 12  1  0
 11 13  1  0
  1 13  1  0
  2 14  1  0
 14  3  1  1
 12 15  1  1
  4 16  1  0
  4 17  1  0
  5 17  2  0
  6 18  2  0
  5 18  1  0
  8 19  2  0
  7 19  1  0
  9 20  1  1
  8 20  1  0
  6 20  1  0
 10 21  1  6
 11 21  1  1
 11 22  1  0
 12 22  1  0
  1 23  1  1
 13 24  1  1
  2 25  1  6
  3 26  1  0
 15 30  1  0
 14 33  1  0
  9 33  1  0
 26 34  1  0
 32 34  2  0
 28 34  1  0
 34 27  1  1
 28 35  1  0
 30 35  1  0
 31 35  2  0
 35 29  1  1
M  END
$$$$
