
     RDKit          3D

 22 21  0  0  0  0  0  0  0  0999 V2000
   66.0294   30.3494  117.7071 C   0  0  0  0  0  0  0  0  0  0  0  0
   66.7128   29.3944  114.2684 N   0  0  0  0  0  0  0  0  0  0  0  0
   66.1563   29.4303  118.5092 O   0  0  0  0  0  0  0  0  0  0  0  0
   66.7152   32.4697  120.3265 C   0  0  0  0  0  0  0  0  0  0  0  0
   66.3665   31.6594  117.9945 N   0  0  0  0  0  0  0  0  0  0  0  0
   65.7005   33.1654  120.3076 O   0  0  0  0  0  0  0  0  0  0  0  0
   67.2585   31.9748  121.5001 N   0  0  0  0  0  0  0  0  0  0  0  0
   65.4769   30.1426  116.3029 C   0  0  2  0  0  0  0  0  0  0  0  0
   63.9897   29.7378  116.3498 C   0  0  0  0  0  0  0  0  0  0  0  0
   63.1881   30.3169  117.5370 C   0  0  0  0  0  0  0  0  0  0  0  0
   66.6160   28.5425  113.1958 C   0  0  0  0  0  0  0  0  0  0  0  0
   66.8617   28.8847  112.0417 O   0  0  0  0  0  0  0  0  0  0  0  0
   66.3175   29.0451  115.6290 C   0  0  0  0  0  0  0  0  0  0  0  0
   66.4576   30.7513  113.9532 O   0  0  0  0  0  0  0  0  0  0  0  0
   67.3937   31.9400  119.0242 C   0  0  1  0  0  0  0  0  0  0  0  0
   68.4994   32.9288  118.5099 C   0  0  0  0  0  0  0  0  0  0  0  0
   62.7910   29.1863  118.4907 C   0  0  0  0  0  0  0  0  0  0  0  0
   61.9384   31.0777  117.0915 C   0  0  0  0  0  0  0  0  0  0  0  0
   68.8962   32.5858  117.0566 C   0  0  0  0  0  0  0  0  0  0  0  0
   69.7693   32.8957  119.3833 C   0  0  0  0  0  0  0  0  0  0  0  0
   67.9591   34.3776  118.4950 C   0  0  0  0  0  0  0  0  0  0  0  0
   66.4049   31.4679  122.5426 C   0  0  0  0  0  0  0  0  0  0  0  0
  1  3  2  0
  1  5  1  0
  4  6  2  0
  4  7  1  0
  1  8  1  0
  8  9  1  1
  9 10  1  0
  2 11  1  0
 11 12  2  0
  8 13  1  0
  2 13  1  0
  2 14  1  0
  4 15  1  0
 15  5  1  6
 15 16  1  0
 10 17  1  0
 10 18  1  0
 16 19  1  0
 16 20  1  0
 16 21  1  0
  7 22  1  0
M  END
