7OLT_58J_A_402
     RDKit          3D

 39 41  0  0  0  0  0  0  0  0999 V2000
  -25.3008  -20.7724   -2.2961 C   0  0  0  0  0  0  0  0  0  0  0  0
  -24.5796  -22.9832   -2.6807 C   0  0  0  0  0  0  0  0  0  0  0  0
  -23.5888  -23.7537   -2.1567 C   0  0  0  0  0  0  0  0  0  0  0  0
  -23.1196  -24.9770   -0.0362 C   0  0  0  0  0  0  0  0  0  0  0  0
  -22.1555  -22.7131    1.2349 C   0  0  0  0  0  0  0  0  0  0  0  0
  -24.8729  -23.1808   -4.1119 C   0  0  0  0  0  0  0  0  0  0  0  0
  -23.3336  -18.9166   -5.5510 C   0  0  0  0  0  0  0  0  0  0  0  0
  -21.1024  -22.9391    3.8756 C   0  0  0  0  0  0  0  0  0  0  0  0
  -24.8915  -24.3051   -4.6190 O   0  0  0  0  0  0  0  0  0  0  0  0
  -24.9236  -22.1433   -4.9558 N   0  0  0  0  0  0  0  0  0  0  0  0
  -24.5047  -20.8505   -4.6919 C   0  0  0  0  0  0  0  0  0  0  0  0
  -24.5865  -20.1969   -3.4713 C   0  0  0  0  0  0  0  0  0  0  0  0
  -23.8605  -20.1874   -5.7217 C   0  0  0  0  0  0  0  0  0  0  0  0
  -23.4330  -18.2865   -4.3334 C   0  0  0  0  0  0  0  0  0  0  0  0
  -24.0739  -18.9218   -3.2931 C   0  0  0  0  0  0  0  0  0  0  0  0
  -25.2509  -22.0607   -1.9854 N   0  0  0  0  0  0  0  0  0  0  0  0
  -26.0714  -22.5471   -0.8820 C   0  0  0  0  0  0  0  0  0  0  0  0
  -26.0127  -19.9863   -1.6481 O   0  0  0  0  0  0  0  0  0  0  0  0
  -23.0949  -23.7826   -0.7407 C   0  0  0  0  0  0  0  0  0  0  0  0
  -22.5642  -22.6534   -0.0997 C   0  0  0  0  0  0  0  0  0  0  0  0
  -22.2294  -23.9102    1.9387 C   0  0  0  0  0  0  0  0  0  0  0  0
  -21.8242  -24.0035    3.2444 O   0  0  0  0  0  0  0  0  0  0  0  0
  -22.7100  -25.0450    1.2976 C   0  0  0  0  0  0  0  0  0  0  0  0
  -23.1198  -24.3968   -2.8134 H   0  0  0  0  0  0  0  0  0  0  0  0
  -23.4478  -25.8342   -0.5077 H   0  0  0  0  0  0  0  0  0  0  0  0
  -21.7969  -21.8650    1.7006 H   0  0  0  0  0  0  0  0  0  0  0  0
  -22.8659  -18.4427   -6.3394 H   0  0  0  0  0  0  0  0  0  0  0  0
  -20.8819  -23.2087    4.8874 H   0  0  0  0  0  0  0  0  0  0  0  0
  -21.6968  -22.0493    3.8649 H   0  0  0  0  0  0  0  0  0  0  0  0
  -20.1894  -22.7643    3.3459 H   0  0  0  0  0  0  0  0  0  0  0  0
  -25.2947  -22.3163   -5.8511 H   0  0  0  0  0  0  0  0  0  0  0  0
  -23.7702  -20.6505   -6.6394 H   0  0  0  0  0  0  0  0  0  0  0  0
  -23.0307  -17.3454   -4.2000 H   0  0  0  0  0  0  0  0  0  0  0  0
  -24.1725  -18.4485   -2.3815 H   0  0  0  0  0  0  0  0  0  0  0  0
  -25.9184  -23.5991   -0.7602 H   0  0  0  0  0  0  0  0  0  0  0  0
  -27.1031  -22.3592   -1.0947 H   0  0  0  0  0  0  0  0  0  0  0  0
  -25.7946  -22.0399    0.0186 H   0  0  0  0  0  0  0  0  0  0  0  0
  -22.4745  -21.7672   -0.6207 H   0  0  0  0  0  0  0  0  0  0  0  0
  -22.7644  -25.9402    1.8080 H   0  0  0  0  0  0  0  0  0  0  0  0
  2  3  2  3
  2  6  1  0
  6  9  2  0
  6 10  1  0
 10 11  1  0
 11 12  4  0
  1 12  1  0
  7 13  4  0
 11 13  4  0
  7 14  4  0
 14 15  4  0
 12 15  4  0
  2 16  1  0
  1 16  1  0
 16 17  1  0
  1 18  2  0
  3 19  1  0
  4 19  4  0
 19 20  4  0
  5 20  4  0
  5 21  4  0
 21 22  1  0
  8 22  1  0
  4 23  4  0
 21 23  4  0
  3 24  1  0
  4 25  1  0
  5 26  1  0
  7 27  1  0
  8 28  1  0
  8 29  1  0
  8 30  1  0
 10 31  1  0
 13 32  1  0
 14 33  1  0
 15 34  1  0
 17 35  1  0
 17 36  1  0
 17 37  1  0
 20 38  1  0
 23 39  1  0
M  END
