6YSP_PAL_C_401
     RDKit          3D

 26 25  0  0  0  0  0  0  0  0999 V2000
   -1.6324   -1.5178    1.9610 P   0  0  0  0  0  5  0  0  0  0  0  0
   -2.4181   -0.9101    0.8208 O   0  0  0  0  0  0  0  0  0  0  0  0
   -2.6658   -1.7923    3.2726 O   0  0  0  0  0  0  0  0  0  0  0  0
   -0.9465   -2.9828    1.4625 O   0  0  0  0  0  0  0  0  0  0  0  0
   -0.3150   -0.3752    2.4726 C   0  0  0  0  0  0  0  0  0  0  0  0
    0.7012   -0.2356    1.3827 C   0  0  0  0  0  0  0  0  0  0  0  0
    1.7759   -0.8917    1.4508 O   0  0  0  0  0  0  0  0  0  0  0  0
    0.4406    0.6169    0.2578 N   0  0  0  0  0  0  0  0  0  0  0  0
    1.3961    0.7721   -0.8463 C   0  0  2  0  0  0  0  0  0  0  0  0
    1.1191    2.0332   -1.6235 C   0  0  0  0  0  0  0  0  0  0  0  0
    2.0751    2.7739   -1.9782 O   0  0  0  0  0  0  0  0  0  0  0  0
   -0.1825    2.3655   -1.9898 O   0  0  0  0  0  0  0  0  0  0  0  0
    1.3892   -0.4638   -1.7669 C   0  0  0  0  0  0  0  0  0  0  0  0
    0.0344   -0.7547   -2.3407 C   0  0  0  0  0  0  0  0  0  0  0  0
   -0.7819   -1.4708   -1.7018 O   0  0  0  0  0  0  0  0  0  0  0  0
   -0.3291   -0.2151   -3.5705 O   0  0  0  0  0  0  0  0  0  0  0  0
   -3.3407   -2.4334    2.9341 H   0  0  0  0  0  0  0  0  0  0  0  0
   -1.7146   -3.5386    1.1764 H   0  0  0  0  0  0  0  0  0  0  0  0
    0.1664   -0.7691    3.3928 H   0  0  0  0  0  0  0  0  0  0  0  0
   -0.7580    0.6155    2.7066 H   0  0  0  0  0  0  0  0  0  0  0  0
   -0.4675    1.1344    0.2352 H   0  0  0  0  0  0  0  0  0  0  0  0
    2.4176    0.8683   -0.4142 H   0  0  0  0  0  0  0  0  0  0  0  0
   -0.3738    3.2029   -2.5267 H   0  0  0  0  0  0  0  0  0  0  0  0
    2.1109   -0.3101   -2.5985 H   0  0  0  0  0  0  0  0  0  0  0  0
    1.7388   -1.3522   -1.1983 H   0  0  0  0  0  0  0  0  0  0  0  0
   -1.2446   -0.3932   -3.9656 H   0  0  0  0  0  0  0  0  0  0  0  0
  1  2  2  0
  1  3  1  0
  1  4  1  0
  1  5  1  0
  5  6  1  0
  6  7  2  0
  6  8  1  0
  8  9  1  0
  9 10  1  0
 10 11  2  0
 10 12  1  0
  9 13  1  0
 13 14  1  0
 14 15  2  0
 14 16  1  0
  3 17  1  0
  4 18  1  0
  5 19  1  0
  5 20  1  0
  8 21  1  0
  9 22  1  1
 12 23  1  0
 13 24  1  0
 13 25  1  0
 16 26  1  0
M  END
