
     RDKit          3D

 12 12  0  0  0  0  0  0  0  0999 V2000
    1.2664   15.4037   43.1946 C   0  0  2  0  0  0  0  0  0  0  0  0
    0.3612   16.6538   43.0656 C   0  0  2  0  0  0  0  0  0  0  0  0
    0.1902   17.3642   44.4153 C   0  0  1  0  0  0  0  0  0  0  0  0
    1.4136   17.1401   45.2996 C   0  0  1  0  0  0  0  0  0  0  0  0
    1.5781   15.6241   45.5557 C   0  0  2  0  0  0  0  0  0  0  0  0
    3.0061   15.2109   45.8933 C   0  0  0  0  0  0  0  0  0  0  0  0
    0.8858   14.4963   42.1492 O   0  0  0  0  0  0  0  0  0  0  0  0
   -0.9602   16.3151   42.5921 O   0  0  0  0  0  0  0  0  0  0  0  0
    0.0120   18.7736   44.1963 O   0  0  0  0  0  0  0  0  0  0  0  0
    2.5551   17.6983   44.6302 O   0  0  0  0  0  0  0  0  0  0  0  0
    1.0902   14.8040   44.4757 O   0  0  0  0  0  0  0  0  0  0  0  0
    0.1591   13.3858   42.6599 C   0  0  0  0  0  0  0  0  0  0  0  0
  1  2  1  0
  2  3  1  0
  3  4  1  0
  4  5  1  0
  5  6  1  6
  1  7  1  6
  2  8  1  1
  3  9  1  6
  4 10  1  6
  1 11  1  0
  5 11  1  0
  7 12  1  0
M  END
