
     RDKit          3D

 10 11  0  0  0  0  0  0  0  0999 V2000
    5.1517   -4.5208   18.4783 C   0  0  0  0  0  0  0  0  0  0  0  0
    5.4187   -5.6707   17.7574 N   0  0  0  0  0  0  0  0  0  0  0  0
    3.6738   -3.2040   19.7518 C   0  0  0  0  0  0  0  0  0  0  0  0
    3.9306   -4.3540   19.0433 N   0  0  0  0  0  0  0  0  0  0  0  0
    5.6807   -2.2855   19.4398 C   0  0  0  0  0  0  0  0  0  0  0  0
    4.4621   -2.1241   20.0034 N   0  0  0  0  0  0  0  0  0  0  0  0
    6.0113   -3.4488   18.6995 C   0  0  0  0  0  0  0  0  0  0  0  0
    7.6763   -2.0665   18.7828 N   0  0  0  0  0  0  0  0  0  0  0  0
    7.3063   -3.2871   18.2834 C   0  0  0  0  0  0  0  0  0  0  0  0
    6.7099   -1.4344   19.4791 N   0  0  0  0  0  0  0  0  0  0  0  0
  1  2  1  0
  1  4  4  0
  3  4  4  0
  5  6  4  0
  3  6  4  0
  1  7  4  0
  5  7  4  0
  8  9  4  0
  7  9  4  0
  8 10  4  0
  5 10  4  0
M  END
