7DUA_HJ0_B_1101
     RDKit          3D

 23 26  0  0  0  0  0  0  0  0999 V2000
   26.3060   12.7630  -25.4880 C   0  0  0  0  0  0  0  0  0  0  0  0
   27.7230   11.0640  -24.5200 C   0  0  0  0  0  0  0  0  0  0  0  0
   28.8500   11.6960  -24.0610 C   0  0  0  0  0  0  0  0  0  0  0  0
   29.7580   10.7000  -23.7260 C   0  0  0  0  0  0  0  0  0  0  0  0
   31.1530   10.8970  -23.1990 C   0  0  0  0  0  0  0  0  0  0  0  0
   23.7920   12.7810  -25.1910 C   0  0  0  0  0  0  0  0  0  0  0  0
   23.1800   16.4310  -27.7390 C   0  0  0  0  0  0  0  0  0  0  0  0
   25.2370   15.4040  -27.3420 C   0  0  0  0  0  0  0  0  0  0  0  0
   24.5760   14.4420  -26.5380 C   0  0  0  0  0  0  0  0  0  0  0  0
   20.5240   12.6890  -26.3610 C   0  0  0  0  0  0  0  0  0  0  0  0
   20.7380   14.3940  -24.3620 C   0  0  0  0  0  0  0  0  0  0  0  0
   27.2330   13.5230  -25.7340 O   0  0  0  0  0  0  0  0  0  0  0  0
   26.4990   11.5620  -24.9090 N   0  0  0  0  0  0  0  0  0  0  0  0
   29.1830    9.5480  -23.9380 N   0  0  0  0  0  0  0  0  0  0  0  0
   27.8940    9.7590  -24.4040 N   0  0  0  0  0  0  0  0  0  0  0  0
   24.9510   13.2540  -25.7540 C   0  0  0  0  0  0  0  0  0  0  0  0
   22.7580   13.5300  -25.5910 N   0  0  0  0  0  0  0  0  0  0  0  0
   23.1720   14.5470  -26.3940 C   0  0  0  0  0  0  0  0  0  0  0  0
   22.5200   15.5420  -27.0130 N   0  0  0  0  0  0  0  0  0  0  0  0
   24.4980   16.3710  -27.9210 N   0  0  0  0  0  0  0  0  0  0  0  0
   26.5970   15.3710  -27.5810 N   0  0  0  0  0  0  0  0  0  0  0  0
   21.3610   13.3130  -25.2410 C   0  0  0  0  0  0  0  0  0  0  0  0
   20.9820   12.9980  -23.7940 C   0  0  0  0  0  0  0  0  0  0  0  0
  2  3  1  0
  3  4  2  0
  4  5  1  0
  8  9  2  0
  1 12  2  0
  2 13  1  0
  1 13  1  0
  4 14  1  0
 14 15  1  0
  2 15  2  0
  6 16  2  0
  1 16  1  0
  9 16  1  0
  6 17  1  0
 17 18  1  0
  9 18  1  0
 18 19  2  0
  7 19  1  0
  8 20  1  0
  7 20  2  0
  8 21  1  0
 11 22  1  0
 17 22  1  0
 10 22  1  0
 11 23  1  0
 22 23  1  0
M  END
$$$$
7DUA_HJ0_A_1101
     RDKit          3D

 23 26  0  0  0  0  0  0  0  0999 V2000
    7.9150   -0.5910   -2.3880 C   0  0  0  0  0  0  0  0  0  0  0  0
    9.5500   -2.3180   -2.7910 C   0  0  0  0  0  0  0  0  0  0  0  0
    8.8650   -3.4510   -3.1460 C   0  0  0  0  0  0  0  0  0  0  0  0
    9.7770   -4.5010   -3.1520 C   0  0  0  0  0  0  0  0  0  0  0  0
    9.5030   -5.9440   -3.4740 C   0  0  0  0  0  0  0  0  0  0  0  0
    8.2810    1.8430   -2.9410 C   0  0  0  0  0  0  0  0  0  0  0  0
    4.3740    3.1620   -1.1860 C   0  0  0  0  0  0  0  0  0  0  0  0
    5.1620    0.9710   -1.1890 C   0  0  0  0  0  0  0  0  0  0  0  0
    6.3230    1.4300   -1.8670 C   0  0  0  0  0  0  0  0  0  0  0  0
    8.7170    5.1960   -2.2060 C   0  0  0  0  0  0  0  0  0  0  0  0
    8.7730    4.3340   -4.6560 C   0  0  0  0  0  0  0  0  0  0  0  0
    7.0040   -1.3860   -2.2130 O   0  0  0  0  0  0  0  0  0  0  0  0
    9.1710   -0.9960   -2.6750 N   0  0  0  0  0  0  0  0  0  0  0  0
   10.9430   -4.0040   -2.8480 N   0  0  0  0  0  0  0  0  0  0  0  0
   10.8220   -2.6450   -2.6360 N   0  0  0  0  0  0  0  0  0  0  0  0
    7.5660    0.8270   -2.3750 C   0  0  0  0  0  0  0  0  0  0  0  0
    7.6140    3.0100   -2.8020 N   0  0  0  0  0  0  0  0  0  0  0  0
    6.4290    2.8110   -2.1650 C   0  0  0  0  0  0  0  0  0  0  0  0
    5.4360    3.6400   -1.8070 N   0  0  0  0  0  0  0  0  0  0  0  0
    4.2250    1.8720   -0.8640 N   0  0  0  0  0  0  0  0  0  0  0  0
    4.9720   -0.3440   -0.8210 N   0  0  0  0  0  0  0  0  0  0  0  0
    8.1160    4.2920   -3.2750 C   0  0  0  0  0  0  0  0  0  0  0  0
    7.3820    4.9260   -4.4500 C   0  0  0  0  0  0  0  0  0  0  0  0
  2  3  1  0
  3  4  2  0
  4  5  1  0
  8  9  2  0
  1 12  2  0
  2 13  1  0
  1 13  1  0
  4 14  1  0
 14 15  1  0
  2 15  2  0
  6 16  2  0
  1 16  1  0
  9 16  1  0
  6 17  1  0
 17 18  1  0
  9 18  1  0
 18 19  2  0
  7 19  1  0
  8 20  1  0
  7 20  2  0
  8 21  1  0
 11 22  1  0
 17 22  1  0
 10 22  1  0
 11 23  1  0
 22 23  1  0
M  END
$$$$
