6XBO_5MC_A_401
     RDKit          3D

 38 39  0  0  0  0  0  0  0  0999 V2000
   17.2581   -8.7308    8.8231 P   0  0  1  0  0  5  0  0  0  0  0  0
   16.8875   -7.2919    8.7947 O   0  0  0  0  0  0  0  0  0  0  0  0
   17.1148   -9.5941    7.4848 O   0  0  0  0  0  0  0  0  0  0  0  0
   18.7238   -8.8994    9.4521 O   0  0  0  0  0  0  0  0  0  0  0  0
   16.2832   -9.3534    9.9151 O   0  0  0  0  0  0  0  0  0  0  0  0
   15.6588  -10.6073    9.6974 C   0  0  0  0  0  0  0  0  0  0  0  0
   16.0279  -11.5878   10.7831 C   0  0  2  0  0  0  0  0  0  0  0  0
   15.2097  -11.3110   11.9417 O   0  0  0  0  0  0  0  0  0  0  0  0
   17.4834  -11.5397   11.2421 C   0  0  2  0  0  0  0  0  0  0  0  0
   17.9608  -12.8767   11.4508 O   0  0  0  0  0  0  0  0  0  0  0  0
   17.4138  -10.7816   12.5747 C   0  0  2  0  0  0  0  0  0  0  0  0
   18.4068  -11.1636   13.4995 O   0  0  0  0  0  0  0  0  0  0  0  0
   16.0202  -11.1467   13.0832 C   0  0  1  0  0  0  0  0  0  0  0  0
   15.3502  -10.1302   13.8990 N   0  0  0  0  0  4  0  0  0  0  0  0
   14.4025  -10.5201   14.7668 C   0  0  0  0  0  0  0  0  0  0  0  0
   14.1857  -11.7141   14.8961 O   0  0  0  0  0  0  0  0  0  0  0  0
   13.7268   -9.6322   15.4971 N   0  0  0  0  0  0  0  0  0  0  0  0
   13.9436   -8.3300   15.3618 C   0  0  0  0  0  0  0  0  0  0  0  0
   13.2328   -7.4315   16.1312 N   0  0  0  0  0  0  0  0  0  0  0  0
   14.9068   -7.8823   14.4232 C   0  0  0  0  0  0  0  0  0  0  0  0
   15.5946   -8.8028   13.6909 C   0  0  0  0  0  0  0  0  0  0  0  0
   15.1625   -6.4034   14.2459 C   0  0  0  0  0  0  0  0  0  0  0  0
   17.7015   -9.2324    6.8023 H   0  0  0  0  0  0  0  0  0  0  0  0
   19.3826   -8.5390    8.8381 H   0  0  0  0  0  0  0  0  0  0  0  0
   14.5972  -10.4738    9.6920 H   0  0  0  0  0  0  0  0  0  0  0  0
   15.9912  -10.9964    8.7577 H   0  0  0  0  0  0  0  0  0  0  0  0
   15.8697  -12.5571   10.3581 H   0  0  0  0  0  0  0  0  0  0  0  0
   18.1415  -11.0759   10.5372 H   0  0  0  0  0  0  0  0  0  0  0  0
   17.3857  -13.3297   12.0872 H   0  0  0  0  0  0  0  0  0  0  0  0
   17.5836   -9.7326   12.4487 H   0  0  0  0  0  0  0  0  0  0  0  0
   18.3324  -12.1139   13.6798 H   0  0  0  0  0  0  0  0  0  0  0  0
   16.1470  -12.0097   13.7030 H   0  0  0  0  0  0  0  0  0  0  0  0
   12.5669   -7.7571   16.7791 H   0  0  0  0  0  0  0  0  0  0  0  0
   13.3916   -6.4650   16.0321 H   0  0  0  0  0  0  0  0  0  0  0  0
   16.2893   -8.5016   12.9898 H   0  0  0  0  0  0  0  0  0  0  0  0
   14.5278   -5.8501   14.9062 H   0  0  0  0  0  0  0  0  0  0  0  0
   16.1861   -6.1888   14.4719 H   0  0  0  0  0  0  0  0  0  0  0  0
   14.9545   -6.1244   13.2341 H   0  0  0  0  0  0  0  0  0  0  0  0
  1  2  2  0
  1  3  1  1
  1  4  1  0
  1  5  1  0
  5  6  1  0
  7  6  1  0
  7  8  1  0
  7  9  1  0
  9 10  1  0
  9 11  1  0
 11 12  1  0
  8 13  1  0
 11 13  1  0
 13 14  1  0
 14 15  4  0
 15 16  2  0
 15 17  4  0
 17 18  4  0
 18 19  1  0
 18 20  4  0
 14 21  4  0
 20 21  4  0
 20 22  1  0
  3 23  1  0
  4 24  1  0
  6 25  1  0
  6 26  1  0
  7 27  1  1
  9 28  1  1
 10 29  1  0
 11 30  1  1
 12 31  1  0
 13 32  1  6
 19 33  1  0
 19 34  1  0
 21 35  1  0
 22 36  1  0
 22 37  1  0
 22 38  1  0
M  CHG  1  14   1
M  END
