
     RDKit          3D

 25 27  0  0  0  0  0  0  0  0999 V2000
   17.6408   -8.0939   16.8274 C   0  0  0  0  0  0  0  0  0  0  0  0
   20.7964   -8.0626   18.5343 C   0  0  0  0  0  0  0  0  0  0  0  0
   14.7160  -10.0289   14.6374 F   0  0  0  0  0  0  0  0  0  0  0  0
   15.6626   -9.4012   15.3469 C   0  0  0  0  0  0  0  0  0  0  0  0
   16.6419   -8.6709   14.6857 C   0  0  0  0  0  0  0  0  0  0  0  0
   17.6289   -8.0150   15.4232 C   0  0  0  0  0  0  0  0  0  0  0  0
   16.6344   -8.8312   17.4739 C   0  0  0  0  0  0  0  0  0  0  0  0
   15.6485   -9.4854   16.7332 C   0  0  0  0  0  0  0  0  0  0  0  0
   18.7063   -7.3889   17.6504 C   0  0  2  0  0  0  0  0  0  0  0  0
   19.5006   -8.3941   18.3151 O   0  0  0  0  0  0  0  0  0  0  0  0
   21.4422   -7.2358   17.9123 O   0  0  0  0  0  0  0  0  0  0  0  0
   21.3528   -8.8504   19.6656 C   0  0  0  0  0  0  0  0  0  0  0  0
   20.4541   -9.5243   20.5035 C   0  0  0  0  0  0  0  0  0  0  0  0
   20.9333  -10.2741   21.5766 C   0  0  0  0  0  0  0  0  0  0  0  0
   19.8250  -11.0985   22.6022 Cl  0  0  0  0  0  0  0  0  0  0  0  0
   22.2999  -10.3617   21.8283 C   0  0  0  0  0  0  0  0  0  0  0  0
   23.1899   -9.6898   20.9946 C   0  0  0  0  0  0  0  0  0  0  0  0
   22.7286   -8.9350   19.9159 C   0  0  0  0  0  0  0  0  0  0  0  0
   24.8809   -9.7872   21.2988 Cl  0  0  0  0  0  0  0  0  0  0  0  0
   18.0700   -6.4826   18.7143 C   0  0  0  0  0  0  0  0  0  0  0  0
   18.5004   -5.1031   18.5748 N   0  0  0  0  0  0  0  0  0  0  0  0
   18.2454   -4.0939   19.4579 C   0  0  0  0  0  0  0  0  0  0  0  0
   18.7747   -2.9618   19.0543 N   0  0  0  0  0  0  0  0  0  0  0  0
   19.3815   -3.2510   17.8592 C   0  0  0  0  0  0  0  0  0  0  0  0
   19.2186   -4.5787   17.5379 C   0  0  0  0  0  0  0  0  0  0  0  0
  3  4  1  0
  4  5  4  0
  5  6  4  0
  1  6  4  0
  1  7  4  0
  4  8  4  0
  7  8  4  0
  1  9  1  0
  9 10  1  0
  2 10  1  0
  2 11  2  0
  2 12  1  0
 12 13  4  0
 13 14  4  0
 14 15  1  0
 14 16  4  0
 16 17  4  0
 12 18  4  0
 17 18  4  0
 17 19  1  0
  9 20  1  1
 20 21  1  0
 21 22  4  0
 22 23  4  0
 23 24  4  0
 21 25  4  0
 24 25  4  0
M  END
