6Z5Z_BDF_A_102
     RDKit          3D

 12 12  0  0  0  0  0  0  0  0999 V2000
    9.6767   17.5350  -15.5656 C   0  0  0  0  0  0  0  0  0  0  0  0
    9.5522   16.0595  -15.2189 C   0  0  1  0  0  0  0  0  0  0  0  0
   10.8698   15.3054  -15.4503 C   0  0  2  0  0  0  0  0  0  0  0  0
   10.6605   13.8009  -15.2851 C   0  0  1  0  0  0  0  0  0  0  0  0
    9.5393   13.3275  -16.1990 C   0  0  1  0  0  0  0  0  0  0  0  0
    8.2950   14.1290  -15.9028 C   0  0  0  0  0  0  0  0  0  0  0  0
    8.6739   18.3061  -14.9147 O   0  0  0  0  0  0  0  0  0  0  0  0
    9.1685   15.8760  -13.8832 O   0  0  0  0  0  0  0  0  0  0  0  0
   11.8659   15.7578  -14.5361 O   0  0  0  0  0  0  0  0  0  0  0  0
   11.8775   13.1069  -15.5350 O   0  0  0  0  0  0  0  0  0  0  0  0
    9.8551   13.5261  -17.5866 O   0  0  0  0  0  0  0  0  0  0  0  0
    8.5459   15.5376  -16.0818 O   0  0  0  0  0  0  0  0  0  0  0  0
  1  2  1  0
  2  3  1  0
  3  4  1  0
  4  5  1  0
  5  6  1  0
  1  7  1  0
  2  8  1  1
  3  9  1  1
  4 10  1  6
  5 11  1  6
  2 12  1  0
  6 12  1  0
M  END
