1TT1_KAI_A_998
     RDKit          3D

 15 15  0  0  0  0  0  0  0  0999 V2000
    2.1690    0.5040   24.1980 N   0  0  0  0  0  0  0  0  0  0  0  0
    0.8890    0.0040   24.8850 C   0  0  0  0  0  0  0  0  0  0  0  0
   -0.9750   -0.0870   27.1820 C   0  0  0  0  0  0  0  0  0  0  0  0
    0.7020   -0.2880   28.9520 C   0  0  0  0  0  0  0  0  0  0  0  0
    3.1870    0.7010   25.2160 C   0  0  1  0  0  0  0  0  0  0  0  0
    2.4360    0.9210   26.5050 C   0  0  1  0  0  0  0  0  0  0  0  0
    1.8050    2.3820   26.7350 C   0  0  0  0  0  0  0  0  0  0  0  0
    1.3620   -0.1190   26.4070 C   0  0  1  0  0  0  0  0  0  0  0  0
    2.8530    3.3780   27.2490 C   0  0  0  0  0  0  0  0  0  0  0  0
    0.2610   -0.1620   27.5430 C   0  0  0  0  0  0  0  0  0  0  0  0
    4.2550   -0.4590   25.2630 C   0  0  0  0  0  0  0  0  0  0  0  0
    4.3490   -1.1400   24.2180 O   0  0  0  0  0  0  0  0  0  0  0  0
    2.4780    4.5590   27.2590 O   0  0  0  0  0  0  0  0  0  0  0  0
    3.9750    2.9610   27.6130 O   0  0  0  0  0  0  0  0  0  0  0  0
    4.9320   -0.5650   26.3310 O   0  0  0  0  0  0  0  0  0  0  0  0
  1  2  1  0
  1  5  1  0
  5  6  1  0
  6  7  1  6
  2  8  1  0
  6  8  1  0
  7  9  1  0
  3 10  2  0
  4 10  1  0
  8 10  1  1
  5 11  1  1
 11 12  2  0
  9 13  1  0
  9 14  2  0
 11 15  1  0
M  END
$$$$
1TT1_KAI_B_999
     RDKit          3D

 15 15  0  0  0  0  0  0  0  0999 V2000
    5.6750   26.4060    6.7790 N   0  0  0  0  0  0  0  0  0  0  0  0
    4.7430   26.8840    5.6620 C   0  0  0  0  0  0  0  0  0  0  0  0
    3.8930   26.9650    2.8200 C   0  0  0  0  0  0  0  0  0  0  0  0
    6.1130   27.2090    1.8180 C   0  0  0  0  0  0  0  0  0  0  0  0
    7.0090   26.2430    6.2250 C   0  0  1  0  0  0  0  0  0  0  0  0
    6.8070   26.0200    4.7420 C   0  0  1  0  0  0  0  0  0  0  0  0
    6.3350   24.5590    4.2700 C   0  0  0  0  0  0  0  0  0  0  0  0
    5.7580   27.0310    4.4290 C   0  0  1  0  0  0  0  0  0  0  0  0
    7.4740   23.5410    4.3050 C   0  0  0  0  0  0  0  0  0  0  0  0
    5.1720   27.0630    2.9550 C   0  0  0  0  0  0  0  0  0  0  0  0
    7.9860   27.4380    6.5900 C   0  0  0  0  0  0  0  0  0  0  0  0
    7.6820   28.0890    7.6200 O   0  0  0  0  0  0  0  0  0  0  0  0
    7.1000   22.3700    4.1830 O   0  0  0  0  0  0  0  0  0  0  0  0
    8.6580   23.9290    4.4490 O   0  0  0  0  0  0  0  0  0  0  0  0
    8.9840   27.6040    5.8290 O   0  0  0  0  0  0  0  0  0  0  0  0
  1  2  1  0
  1  5  1  0
  5  6  1  0
  6  7  1  1
  2  8  1  0
  6  8  1  0
  7  9  1  0
  3 10  2  0
  4 10  1  0
  8 10  1  6
  5 11  1  6
 11 12  2  0
  9 13  1  0
  9 14  2  0
 11 15  1  0
M  END
$$$$
