
     RDKit          3D

 31 33  0  0  0  0  0  0  0  0999 V2000
    2.6329  -19.0853  -22.8093 P   0  0  0  0  0  5  0  0  0  0  0  0
    1.5247  -18.2665  -23.3836 O   0  0  0  0  0  0  0  0  0  0  0  0
    2.1057  -20.2831  -21.8897 O   0  0  0  0  0  0  0  0  0  0  0  0
    3.4770  -18.2467  -21.7323 O   0  0  0  0  0  0  0  0  0  0  0  0
    4.8706  -18.6367  -24.8193 P   0  0  2  0  0  5  0  0  0  0  0  0
    4.5768  -17.1845  -24.6516 O   0  0  0  0  0  0  0  0  0  0  0  0
    4.7162  -19.1036  -26.3533 O   0  0  0  0  0  0  0  0  0  0  0  0
    3.8353  -19.7686  -23.9175 C   0  0  0  0  0  0  0  0  0  0  0  0
    6.9286  -19.4528  -23.0440 P   0  0  2  0  0  5  0  0  0  0  0  0
    6.2948  -18.8589  -21.8362 O   0  0  0  0  0  0  0  0  0  0  0  0
    8.5038  -19.1884  -23.2087 O   0  0  0  0  0  0  0  0  0  0  0  0
    6.3506  -19.0998  -24.4767 O   0  0  0  0  0  0  0  0  0  0  0  0
    6.9345  -21.0634  -23.0776 O   0  0  0  0  0  0  0  0  0  0  0  0
    6.0043  -21.7253  -22.2239 C   0  0  0  0  0  0  0  0  0  0  0  0
    6.7374  -22.7632  -21.3791 C   0  0  1  0  0  0  0  0  0  0  0  0
    8.0288  -23.0452  -21.9522 O   0  0  0  0  0  0  0  0  0  0  0  0
    7.0105  -22.2770  -19.9608 C   0  0  1  0  0  0  0  0  0  0  0  0
    5.8945  -22.4510  -19.0922 O   0  0  0  0  0  0  0  0  0  0  0  0
    8.1708  -23.1724  -19.5560 C   0  0  1  0  0  0  0  0  0  0  0  0
    7.6522  -24.4569  -19.1471 O   0  0  0  0  0  0  0  0  0  0  0  0
    8.9521  -23.3144  -20.8699 C   0  0  2  0  0  0  0  0  0  0  0  0
   10.1099  -22.4658  -21.0616 N   0  0  0  0  0  0  0  0  0  0  0  0
   10.0371  -21.1660  -21.5024 C   0  0  0  0  0  0  0  0  0  0  0  0
   11.2262  -20.6129  -21.6237 N   0  0  0  0  0  0  0  0  0  0  0  0
   12.1061  -21.5887  -21.2134 C   0  0  0  0  0  0  0  0  0  0  0  0
   13.5061  -21.6028  -21.0935 C   0  0  0  0  0  0  0  0  0  0  0  0
   14.3072  -20.5122  -21.4119 N   0  0  0  0  0  0  0  0  0  0  0  0
   14.1043  -22.7222  -20.6288 N   0  0  0  0  0  0  0  0  0  0  0  0
   13.3268  -23.7854  -20.3339 C   0  0  0  0  0  0  0  0  0  0  0  0
   11.9840  -23.8967  -20.4181 N   0  0  0  0  0  0  0  0  0  0  0  0
   11.4331  -22.7512  -20.8594 C   0  0  0  0  0  0  0  0  0  0  0  0
  1  2  2  0
  1  3  1  0
  1  4  1  0
  5  6  2  0
  5  7  1  6
  1  8  1  0
  5  8  1  0
  9 10  2  0
  9 11  1  6
  5 12  1  0
  9 12  1  0
  9 13  1  0
 13 14  1  0
 15 14  1  6
 15 16  1  0
 15 17  1  0
 17 18  1  1
 17 19  1  0
 19 20  1  6
 16 21  1  0
 19 21  1  0
 21 22  1  1
 22 23  4  0
 23 24  4  0
 24 25  4  0
 25 26  4  0
 26 27  1  0
 26 28  4  0
 28 29  4  0
 29 30  4  0
 22 31  4  0
 25 31  4  0
 30 31  4  0
M  END
