1YWR_LI9_A_361
     RDKit          3D

 35 39  0  0  0  0  0  0  0  0999 V2000
    5.4731   -0.4288   18.8353 C   0  0  0  0  0  0  0  0  0  0  0  0
    4.9498   -0.5934   16.1356 C   0  0  0  0  0  0  0  0  0  0  0  0
    4.3091   -1.0809   18.4197 C   0  0  0  0  0  0  0  0  0  0  0  0
    6.3596    0.1295   17.9449 C   0  0  0  0  0  0  0  0  0  0  0  0
    6.1030    0.0505   16.5877 C   0  0  0  0  0  0  0  0  0  0  0  0
    4.0770   -1.1449   17.0475 C   0  0  0  0  0  0  0  0  0  0  0  0
    3.3906   -1.6619   19.3919 C   0  0  0  0  0  0  0  0  0  0  0  0
    6.9793    0.6020   15.7169 F   0  0  0  0  0  0  0  0  0  0  0  0
    2.0681   -2.9968   20.5490 N   0  0  0  0  0  0  0  0  0  0  0  0
    1.3594   -4.1726   20.9447 C   0  0  2  0  0  0  0  0  0  0  0  0
    1.3162   -1.4343   22.3380 C   0  0  0  0  0  0  0  0  0  0  0  0
    2.8666   -0.9539   20.4532 C   0  0  0  0  0  0  0  0  0  0  0  0
    3.0932    0.4398   20.8225 C   0  0  0  0  0  0  0  0  0  0  0  0
    3.1520   -3.8441   18.6545 O   0  0  0  0  0  0  0  0  0  0  0  0
    2.8806   -2.9417   19.4652 C   0  0  0  0  0  0  0  0  0  0  0  0
    2.0563   -1.8088   21.1441 N   0  0  0  0  0  0  0  0  0  0  0  0
   -0.3747   -5.6768   19.9930 C   0  0  0  0  0  0  0  0  0  0  0  0
    1.4364   -6.5749   21.3260 C   0  0  0  0  0  0  0  0  0  0  0  0
    2.0813   -5.4484   20.5236 C   0  0  0  0  0  0  0  0  0  0  0  0
   -0.0436   -4.2776   20.4359 C   0  0  0  0  0  0  0  0  0  0  0  0
    0.0650   -6.6772   20.9349 N   0  0  0  0  0  0  0  0  0  0  0  0
    3.1610    0.8240   22.1147 N   0  0  0  0  0  0  0  0  0  0  0  0
    3.4531    2.6836   20.1810 C   0  0  0  0  0  0  0  0  0  0  0  0
    3.4426    2.5183   23.8383 N   0  0  0  0  0  0  0  0  0  0  0  0
    3.2406    1.3790   19.8114 C   0  0  0  0  0  0  0  0  0  0  0  0
    3.3726    2.1239   22.4594 C   0  0  0  0  0  0  0  0  0  0  0  0
    3.5198    3.0610   21.4895 N   0  0  0  0  0  0  0  0  0  0  0  0
    3.3322    1.5356   24.8724 C   0  0  2  0  0  0  0  0  0  0  0  0
    1.9910    0.8753   24.9202 C   0  0  0  0  0  0  0  0  0  0  0  0
    3.7227    2.0606   26.2449 C   0  0  0  0  0  0  0  0  0  0  0  0
   -0.5363   -0.2227   24.9839 C   0  0  0  0  0  0  0  0  0  0  0  0
    0.9018    1.7075   24.7128 C   0  0  0  0  0  0  0  0  0  0  0  0
    1.8520   -0.4789   25.1564 C   0  0  0  0  0  0  0  0  0  0  0  0
    0.5754   -1.0433   25.1904 C   0  0  0  0  0  0  0  0  0  0  0  0
   -0.3640    1.1282   24.7500 C   0  0  0  0  0  0  0  0  0  0  0  0
  1  3  2  0
  1  4  1  0
  2  5  1  0
  4  5  2  0
  2  6  2  0
  3  6  1  0
  3  7  1  0
  5  8  1  0
 10  9  1  6
  7 12  2  0
 12 13  1  0
  7 15  1  0
  9 15  1  0
 14 15  2  0
  9 16  1  0
 11 16  1  6
 12 16  1  0
 10 19  1  0
 19 18  1  1
 10 20  1  0
 20 17  1  6
 17 21  1  6
 18 21  1  1
 13 22  2  0
 13 25  1  0
 23 25  2  0
 22 26  1  0
 24 26  1  0
 23 27  1  0
 26 27  2  0
 28 24  1  6
 28 29  1  0
 30 28  1  6
 29 32  1  0
 29 33  2  0
 31 34  2  0
 33 34  1  0
 31 35  1  0
 32 35  2  0
M  END
$$$$
