8CGC_LMR_A_1001
     RDKit          3D

 15 14  0  0  0  0  0  0  0  0999 V2000
   -0.3141    1.2905    0.5645 C   0  0  0  0  0  0  0  0  0  0  0  0
   -0.1012    2.5317    0.6115 O   0  0  0  0  0  0  0  0  0  0  0  0
   -1.5007    0.8116    0.0160 O   0  0  0  0  0  0  0  0  0  0  0  0
    0.7327    0.3317    1.0534 C   0  0  1  0  0  0  0  0  0  0  0  0
    0.1134   -0.8250    1.5544 O   0  0  0  0  0  0  0  0  0  0  0  0
    1.7267   -0.0232   -0.0674 C   0  0  0  0  0  0  0  0  0  0  0  0
    1.0760   -0.7718   -1.1924 C   0  0  0  0  0  0  0  0  0  0  0  0
    0.5800   -0.0780   -2.2918 O   0  0  0  0  0  0  0  0  0  0  0  0
    0.9505   -2.0241   -1.1291 O   0  0  0  0  0  0  0  0  0  0  0  0
   -2.2055    1.4491   -0.3345 H   0  0  0  0  0  0  0  0  0  0  0  0
    1.2960    0.8309    1.8763 H   0  0  0  0  0  0  0  0  0  0  0  0
    0.7983   -1.3095    2.0858 H   0  0  0  0  0  0  0  0  0  0  0  0
    2.5471   -0.6433    0.3549 H   0  0  0  0  0  0  0  0  0  0  0  0
    2.1901    0.9063   -0.4644 H   0  0  0  0  0  0  0  0  0  0  0  0
    0.1245   -0.5676   -3.0526 H   0  0  0  0  0  0  0  0  0  0  0  0
  1  2  2  0
  1  3  1  0
  1  4  1  0
  4  5  1  0
  4  6  1  0
  6  7  1  0
  7  8  1  0
  7  9  2  0
  3 10  1  0
  4 11  1  1
  5 12  1  0
  6 13  1  0
  6 14  1  0
  8 15  1  0
M  END
