7C0U_FGO_B_506
     RDKit          3D

 71 76  0  0  0  0  0  0  0  0999 V2000
   41.7291   10.0378   54.5439 C   0  0  1  0  0  0  0  0  0  0  0  0
   42.2544   10.0012   52.3069 C   0  0  1  0  0  0  0  0  0  0  0  0
   42.1855   10.0522   49.9181 C   0  0  0  0  0  0  0  0  0  0  0  0
   41.6689   10.8849   48.8422 C   0  0  0  0  0  0  0  0  0  0  0  0
   41.1709   11.7640   50.7684 C   0  0  0  0  0  0  0  0  0  0  0  0
   41.9051   10.3961   47.4845 C   0  0  0  0  0  0  0  0  0  0  0  0
   43.0466    8.5472   48.3767 C   0  0  0  0  0  0  0  0  0  0  0  0
   43.4902   10.5777   52.9621 C   0  0  1  0  0  0  0  0  0  0  0  0
   43.1364   10.5617   54.4507 C   0  0  2  0  0  0  0  0  0  0  0  0
   44.6405    9.6691   52.7434 C   0  0  0  0  0  0  0  0  0  0  0  0
   42.4926   11.5426   53.1030 O   0  0  0  0  0  0  0  0  0  0  0  0
   41.7964   12.6896   53.7894 P   0  0  1  0  0  5  0  0  0  0  0  0
   42.6352   14.0855   53.8011 O   0  0  0  0  0  0  0  0  0  0  0  0
   40.4474   12.9750   52.9837 O   0  0  0  0  0  0  0  0  0  0  0  0
   39.8382   12.0150   52.1129 C   0  0  2  0  0  0  0  0  0  0  0  0
   40.0293   10.6983   52.8187 C   0  0  1  0  0  0  0  0  0  0  0  0
   38.8543    9.7519   52.5945 C   0  0  0  0  0  0  0  0  0  0  0  0
   38.3389    9.1664   53.7979 O   0  0  0  0  0  0  0  0  0  0  0  0
   41.2821   10.2172   52.3239 O   0  0  0  0  0  0  0  0  0  0  0  0
   41.7153   10.9713   51.2045 C   0  0  1  0  0  0  0  0  0  0  0  0
   42.2866   10.0414   50.1874 N   0  0  0  0  0  4  0  0  0  0  0  0
   43.0233    8.8992   50.4294 C   0  0  0  0  0  0  0  0  0  0  0  0
   43.5591    8.1773   49.3347 C   0  0  0  0  0  0  0  0  0  0  0  0
   43.2847    8.6050   48.0193 C   0  0  0  0  0  0  0  0  0  0  0  0
   43.7166    8.0001   46.9690 O   0  0  0  0  0  0  0  0  0  0  0  0
   42.5773    9.7310   47.8211 N   0  0  0  0  0  4  0  0  0  0  0  0
   42.0889   10.4398   48.8553 C   0  0  0  0  0  0  0  0  0  0  0  0
   41.4236   11.4762   48.6556 O   0  0  0  0  0  0  0  0  0  0  0  0
   40.5265   11.8197   50.7731 C   0  0  2  0  0  0  0  0  0  0  0  0
   40.9798   13.0471   50.1620 O   0  0  0  0  0  0  0  0  0  0  0  0
   41.3857   12.2375   55.2572 O   0  0  0  0  0  0  0  0  0  0  0  0
   40.9294   10.9247   55.4677 C   0  0  0  0  0  0  0  0  0  0  0  0
   44.0867    9.6867   55.1641 C   0  0  0  0  0  0  0  0  0  0  0  0
   44.8450    8.9564   54.0670 C   0  0  1  0  0  0  0  0  0  0  0  0
   44.3225    7.6591   53.9337 O   0  0  0  0  0  0  0  0  0  0  0  0
   46.2509    8.9025   54.3627 O   0  0  0  0  0  0  0  0  0  0  0  0
   41.2115   10.1859   53.2372 O   0  0  0  0  0  0  0  0  0  0  0  0
   41.8726   10.6436   51.0300 N   0  0  0  0  0  4  0  0  0  0  0  0
   41.0375   11.9122   49.4192 N   0  0  0  0  0  0  0  0  0  0  0  0
   42.8775    8.9248   49.6664 N   0  0  0  0  0  0  0  0  0  0  0  0
   43.7271    7.3989   48.1615 N   0  0  0  0  0  0  0  0  0  0  0  0
   42.5909    9.2535   47.3424 N   0  0  0  0  0  4  0  0  0  0  0  0
   41.4895   11.0608   46.5003 O   0  0  0  0  0  0  0  0  0  0  0  0
   41.6910    9.0317   54.9062 H   0  0  0  0  0  0  0  0  0  0  0  0
   42.4500    8.9789   52.0584 H   0  0  0  0  0  0  0  0  0  0  0  0
   40.7929   12.4098   51.4791 H   0  0  0  0  0  0  0  0  0  0  0  0
   43.7518   11.5442   52.5848 H   0  0  0  0  0  0  0  0  0  0  0  0
   43.1991   11.5324   54.8965 H   0  0  0  0  0  0  0  0  0  0  0  0
   45.5142   10.2274   52.4795 H   0  0  0  0  0  0  0  0  0  0  0  0
   44.4592    8.9815   51.9438 H   0  0  0  0  0  0  0  0  0  0  0  0
   42.8684   14.3302   52.8919 H   0  0  0  0  0  0  0  0  0  0  0  0
   38.8389   12.3453   51.9196 H   0  0  0  0  0  0  0  0  0  0  0  0
   40.0529   10.7899   53.8845 H   0  0  0  0  0  0  0  0  0  0  0  0
   39.1765    8.9628   51.9477 H   0  0  0  0  0  0  0  0  0  0  0  0
   38.0636   10.3351   52.1708 H   0  0  0  0  0  0  0  0  0  0  0  0
   39.0280    8.6265   54.2157 H   0  0  0  0  0  0  0  0  0  0  0  0
   42.5159   11.6524   51.4042 H   0  0  0  0  0  0  0  0  0  0  0  0
   43.1818    8.5752   51.3962 H   0  0  0  0  0  0  0  0  0  0  0  0
   44.1460    7.3444   49.4986 H   0  0  0  0  0  0  0  0  0  0  0  0
   42.4136   10.0429   46.9018 H   0  0  0  0  0  0  0  0  0  0  0  0
   39.8837   11.3974   50.0292 H   0  0  0  0  0  0  0  0  0  0  0  0
   41.5781   13.5092   50.7699 H   0  0  0  0  0  0  0  0  0  0  0  0
   41.0892   10.6369   56.4858 H   0  0  0  0  0  0  0  0  0  0  0  0
   39.8811   10.8436   55.2693 H   0  0  0  0  0  0  0  0  0  0  0  0
   43.5637    8.9916   55.7871 H   0  0  0  0  0  0  0  0  0  0  0  0
   44.7402   10.2400   55.8058 H   0  0  0  0  0  0  0  0  0  0  0  0
   43.4139    7.5376   53.7398 H   0  0  0  0  0  0  0  0  0  0  0  0
   46.7359    9.6957   54.4791 H   0  0  0  0  0  0  0  0  0  0  0  0
   44.0643    6.8761   48.9245 H   0  0  0  0  0  0  0  0  0  0  0  0
   43.8854    7.0855   47.2417 H   0  0  0  0  0  0  0  0  0  0  0  0
   42.7661    8.9207   46.4326 H   0  0  0  0  0  0  0  0  0  0  0  0
  3  4  4  0
  4  6  4  0
  2  8  1  0
  8  9  1  0
  1  9  1  0
  8 10  1  0
 11 12  2  0
 12 13  1  1
 12 14  1  0
 15 14  1  0
 15 16  1  0
 16 17  1  0
 17 18  1  0
 16 19  1  0
 19 20  1  0
 20 21  1  0
 21 22  4  0
 22 23  4  0
 23 24  4  0
 24 25  2  0
 24 26  4  0
 26 27  4  0
 21 27  4  0
 27 28  2  0
 20 29  1  0
 15 29  1  0
 29 30  1  0
 12 31  1  0
  1 32  1  0
 31 32  1  0
  9 33  1  0
 10 34  1  0
 33 34  1  0
 34 35  1  6
 34 36  1  0
  2 37  1  0
  1 37  1  0
  2 38  1  0
  3 38  4  0
  5 38  4  0
  4 39  4  0
  5 39  4  0
  7 40  4  0
  3 40  4  0
  7 41  1  0
  7 42  4  0
  6 42  4  0
  6 43  2  0
  1 44  1  1
  2 45  1  6
  5 46  1  0
  8 47  1  6
  9 48  1  1
 10 49  1  0
 10 50  1  0
 13 51  1  0
 15 52  1  6
 16 53  1  1
 17 54  1  0
 17 55  1  0
 18 56  1  0
 20 57  1  1
 22 58  1  0
 23 59  1  0
 26 60  1  0
 29 61  1  6
 30 62  1  0
 32 63  1  0
 32 64  1  0
 33 65  1  0
 33 66  1  0
 35 67  1  0
 36 68  1  0
 41 69  1  0
 41 70  1  0
 42 71  1  0
M  CHG  4  21   1  26   1  38   1  42   1
M  END
