7ZTL_BCN_A_506
     RDKit          3D

 11 10  0  0  0  0  0  0  0  0999 V2000
  -26.4734   44.7315   19.0814 N   0  0  0  0  0  0  0  0  0  0  0  0
  -24.9711   44.8375   19.2984 C   0  0  0  0  0  0  0  0  0  0  0  0
  -24.2572   43.9810   18.3443 C   0  0  0  0  0  0  0  0  0  0  0  0
  -24.7760   43.3688   17.3651 O   0  0  0  0  0  0  0  0  0  0  0  0
  -22.8499   43.7797   18.4747 O   0  0  0  0  0  0  0  0  0  0  0  0
  -26.9056   45.8606   19.9308 C   0  0  0  0  0  0  0  0  0  0  0  0
  -27.6065   45.5120   21.1760 C   0  0  0  0  0  0  0  0  0  0  0  0
  -27.8150   46.6775   21.9660 O   0  0  0  0  0  0  0  0  0  0  0  0
  -26.7527   43.4868   19.7841 C   0  0  0  0  0  0  0  0  0  0  0  0
  -27.4080   42.3990   19.0303 C   0  0  0  0  0  0  0  0  0  0  0  0
  -27.4141   41.1847   19.7697 O   0  0  0  0  0  0  0  0  0  0  0  0
  1  2  1  0
  2  3  1  0
  3  4  2  0
  3  5  1  0
  1  6  1  0
  6  7  1  0
  7  8  1  0
  1  9  1  0
  9 10  1  0
 10 11  1  0
M  END
$$$$
