
     RDKit          3D

 31 34  0  0  0  0  0  0  0  0999 V2000
   -0.5335    7.1833  -21.4738 C   0  0  0  0  0  0  0  0  0  0  0  0
    1.7976    4.9862  -19.0760 C   0  0  0  0  0  0  0  0  0  0  0  0
    2.8678    5.9799  -18.6776 C   0  0  0  0  0  0  0  0  0  0  0  0
    2.5421    7.0642  -17.8495 C   0  0  0  0  0  0  0  0  0  0  0  0
    3.5345    7.9584  -17.4448 C   0  0  0  0  0  0  0  0  0  0  0  0
    4.8347    7.7383  -17.8705 C   0  0  0  0  0  0  0  0  0  0  0  0
    4.2135    5.8601  -19.0434 C   0  0  0  0  0  0  0  0  0  0  0  0
    5.1490    3.7597  -17.3592 C   0  0  0  0  0  0  0  0  0  0  0  0
    0.8629    6.9527  -23.6133 C   0  0  0  0  0  0  0  0  0  0  0  0
    3.2858    6.4779  -23.6956 C   0  0  0  0  0  0  0  0  0  0  0  0
    1.8689    6.1226  -25.6294 C   0  0  0  0  0  0  0  0  0  0  0  0
    0.2087    6.4164  -20.6599 N   0  0  0  0  0  0  0  0  0  0  0  0
   -1.6517    7.8217  -21.0791 N   0  0  0  0  0  0  0  0  0  0  0  0
   -2.0623    7.6138  -19.8146 C   0  0  0  0  0  0  0  0  0  0  0  0
   -1.3956    6.8028  -18.9336 C   0  0  0  0  0  0  0  0  0  0  0  0
   -0.2136    6.2421  -19.3937 C   0  0  0  0  0  0  0  0  0  0  0  0
    0.4931    5.3787  -18.5348 N   0  0  0  0  0  0  0  0  0  0  0  0
   -0.2178    7.3741  -22.8208 N   0  0  0  0  0  0  0  0  0  0  0  0
    5.1991    6.7046  -18.6572 N   0  0  0  0  0  0  0  0  0  0  0  0
    4.6737    4.7866  -19.8626 N   0  0  0  0  0  0  0  0  0  0  0  0
    5.6722    3.6736  -19.0669 S   0  0  0  0  0  6  0  0  0  0  0  0
    5.0561    5.1640  -21.2378 C   0  0  0  0  0  0  0  0  0  0  0  0
    5.3925    2.3432  -19.5625 O   0  0  0  0  0  0  0  0  0  0  0  0
    7.0235    4.1970  -19.1373 O   0  0  0  0  0  0  0  0  0  0  0  0
    0.7355    6.5330  -24.9444 C   0  0  0  0  0  0  0  0  0  0  0  0
    2.1447    6.8924  -22.9994 C   0  0  0  0  0  0  0  0  0  0  0  0
    3.1139    6.1081  -25.0072 C   0  0  0  0  0  0  0  0  0  0  0  0
    2.0138    5.6380  -27.0402 C   0  0  0  0  0  0  0  0  0  0  0  0
    3.5246    5.3921  -27.1424 C   0  0  0  0  0  0  0  0  0  0  0  0
    4.0801    5.6764  -25.9003 N   0  0  0  0  0  0  0  0  0  0  0  0
    4.1372    5.0110  -28.1270 O   0  0  0  0  0  0  0  0  0  0  0  0
  2  3  1  0
  3  4  4  0
  4  5  4  0
  5  6  4  0
  3  7  4  0
  1 12  4  0
  1 13  4  0
 13 14  4  0
 14 15  4  0
 15 16  4  0
 12 16  4  0
 16 17  1  0
  2 17  1  0
  1 18  1  0
  9 18  1  0
  6 19  4  0
  7 19  4  0
  7 20  1  0
 20 21  1  0
  8 21  1  0
 20 22  1  0
 21 23  2  0
 21 24  2  0
  9 25  4  0
 11 25  4  0
  9 26  4  0
 10 26  4  0
 11 27  4  0
 10 27  4  0
 11 28  1  0
 28 29  1  0
 27 30  1  0
 29 30  1  0
 29 31  2  0
M  END
