1JJE_BYS_A_250
     RDKit          3D

 43 45  0  0  0  0  0  0  0  0999 V2000
   37.9604    8.2732   22.7971 C   0  0  1  0  0  0  0  0  0  0  0  0
   38.5620    7.0580   23.4663 C   0  0  0  0  0  0  0  0  0  0  0  0
   38.1698    5.9087   23.1270 O   0  0  0  0  0  0  0  0  0  0  0  0
   39.5758    7.1728   24.4081 O   0  0  0  0  0  0  0  0  0  0  0  0
   37.1528    9.2104   23.7458 C   0  0  1  0  0  0  0  0  0  0  0  0
   37.7146    9.4759   25.1258 C   0  0  0  0  0  0  0  0  0  0  0  0
   37.7648   10.7873   25.6325 C   0  0  0  0  0  0  0  0  0  0  0  0
   38.2304   11.0309   26.9281 C   0  0  0  0  0  0  0  0  0  0  0  0
   38.6132    9.9661   27.7461 C   0  0  0  0  0  0  0  0  0  0  0  0
   38.5092    8.6550   27.2770 C   0  0  0  0  0  0  0  0  0  0  0  0
   38.0431    8.4088   25.9821 C   0  0  0  0  0  0  0  0  0  0  0  0
   38.9230    8.9303   21.7528 C   0  0  1  0  0  0  0  0  0  0  0  0
   38.1632    9.3151   20.5068 C   0  0  0  0  0  0  0  0  0  0  0  0
   37.9455    8.4711   19.5960 O   0  0  0  0  0  0  0  0  0  0  0  0
   37.7369   10.6296   20.3420 O   0  0  0  0  0  0  0  0  0  0  0  0
   39.8197   10.1077   22.2225 C   0  0  2  0  0  0  0  0  0  0  0  0
   39.9084   10.2784   23.7177 C   0  0  0  0  0  0  0  0  0  0  0  0
   41.1680   10.3640   24.3555 C   0  0  0  0  0  0  0  0  0  0  0  0
   41.1920   10.5318   25.7366 C   0  0  0  0  0  0  0  0  0  0  0  0
   42.2880   10.6236   26.5725 O   0  0  0  0  0  0  0  0  0  0  0  0
   41.8092   10.7895   27.9145 C   0  0  2  0  0  0  0  0  0  0  0  0
   40.3790   10.7913   27.8031 O   0  0  0  0  0  0  0  0  0  0  0  0
   40.0550   10.6328   26.4696 C   0  0  0  0  0  0  0  0  0  0  0  0
   38.7943   10.5811   25.8847 C   0  0  0  0  0  0  0  0  0  0  0  0
   38.7241   10.4106   24.4907 C   0  0  0  0  0  0  0  0  0  0  0  0
   37.1529    7.8357   22.1635 H   0  0  0  0  0  0  0  0  0  0  0  0
   40.5499    7.1390   24.1327 H   0  0  0  0  0  0  0  0  0  0  0  0
   36.9858   10.1811   23.2307 H   0  0  0  0  0  0  0  0  0  0  0  0
   36.1336    8.7802   23.8655 H   0  0  0  0  0  0  0  0  0  0  0  0
   37.4472   11.6238   25.0245 H   0  0  0  0  0  0  0  0  0  0  0  0
   38.2863   12.0456   27.3005 H   0  0  0  0  0  0  0  0  0  0  0  0
   38.9711   10.1555   28.7498 H   0  0  0  0  0  0  0  0  0  0  0  0
   38.7754    7.8277   27.9221 H   0  0  0  0  0  0  0  0  0  0  0  0
   37.9171    7.3840   25.6585 H   0  0  0  0  0  0  0  0  0  0  0  0
   39.6200    8.1264   21.4271 H   0  0  0  0  0  0  0  0  0  0  0  0
   38.0689   11.3643   20.9552 H   0  0  0  0  0  0  0  0  0  0  0  0
   39.5121   11.0512   21.7426 H   0  0  0  0  0  0  0  0  0  0  0  0
   40.8543    9.9225   21.8580 H   0  0  0  0  0  0  0  0  0  0  0  0
   42.0931   10.2995   23.7979 H   0  0  0  0  0  0  0  0  0  0  0  0
   42.1623   11.7564   28.3304 H   0  0  0  0  0  0  0  0  0  0  0  0
   42.1429    9.9410   28.5478 H   0  0  0  0  0  0  0  0  0  0  0  0
   37.8973   10.6706   26.4831 H   0  0  0  0  0  0  0  0  0  0  0  0
   37.7526   10.3745   24.0165 H   0  0  0  0  0  0  0  0  0  0  0  0
  1  2  1  0
  2  3  2  0
  2  4  1  0
  1  5  1  0
  5  6  1  0
  6  7  2  0
  7  8  1  0
  8  9  2  0
  9 10  1  0
  6 11  1  0
 10 11  2  0
  1 12  1  0
 12 13  1  0
 13 14  2  0
 13 15  1  0
 12 16  1  0
 16 17  1  0
 17 18  2  0
 18 19  1  0
 19 20  1  0
 20 21  1  0
 21 22  1  0
 19 23  2  0
 22 23  1  0
 23 24  1  0
 17 25  1  0
 24 25  2  0
  1 26  1  6
  4 27  1  0
  5 28  1  6
  5 29  1  0
  7 30  1  0
  8 31  1  0
  9 32  1  0
 10 33  1  0
 11 34  1  0
 12 35  1  6
 15 36  1  0
 16 37  1  6
 16 38  1  0
 18 39  1  0
 21 40  1  1
 21 41  1  0
 24 42  1  0
 25 43  1  0
M  END
