
     RDKit          3D

 13 13  0  0  0  0  0  0  0  0999 V2000
  -15.5544   -8.7876    8.7780 C   0  0  2  0  0  0  0  0  0  0  0  0
  -14.4304   -9.4865    9.5760 C   0  0  1  0  0  0  0  0  0  0  0  0
  -13.2149   -8.5567    9.6490 C   0  0  1  0  0  0  0  0  0  0  0  0
  -13.6212   -7.2054   10.2471 C   0  0  0  0  0  0  0  0  0  0  0  0
  -14.7931   -6.6119    9.4434 C   0  0  2  0  0  0  0  0  0  0  0  0
  -15.2904   -5.3053   10.0794 C   0  0  0  0  0  0  0  0  0  0  0  0
  -16.2643   -8.8004    6.5258 C   0  0  0  0  0  0  0  0  0  0  0  0
  -15.1616   -8.6522    7.4125 O   0  0  0  0  0  0  0  0  0  0  0  0
  -14.8866   -9.7934   10.9056 O   0  0  0  0  0  0  0  0  0  0  0  0
  -12.1558   -9.1479   10.4154 O   0  0  0  0  0  0  0  0  0  0  0  0
  -12.4822   -6.3269   10.2580 O   0  0  0  0  0  0  0  0  0  0  0  0
  -15.8954   -7.5221    9.3579 O   0  0  0  0  0  0  0  0  0  0  0  0
  -15.8484   -5.5188   11.3721 O   0  0  0  0  0  0  0  0  0  0  0  0
  1  2  1  0
  2  3  1  0
  3  4  1  0
  4  5  1  0
  5  6  1  1
  1  8  1  6
  7  8  1  0
  2  9  1  1
  3 10  1  1
  4 11  1  0
  1 12  1  0
  5 12  1  0
  6 13  1  0
M  END
