7NF0_BYN_B_702
     RDKit          3D

 37 40  0  0  0  0  0  0  0  0999 V2000
    6.9179   32.9218   40.9921 C   0  0  0  0  0  0  0  0  0  0  0  0
    6.6635   32.4146   42.1953 N   0  0  0  0  0  0  0  0  0  0  0  0
    7.3282   31.2900   42.5852 C   0  0  0  0  0  0  0  0  0  0  0  0
    8.2493   30.6618   41.7815 C   0  0  0  0  0  0  0  0  0  0  0  0
    8.4724   31.2373   40.5400 C   0  0  0  0  0  0  0  0  0  0  0  0
    7.8077   32.3440   40.1764 N   0  0  0  0  0  0  0  0  0  0  0  0
    8.9594   29.4784   42.1998 N   0  0  0  0  0  0  0  0  0  0  0  0
    9.9182   28.9138   41.2776 C   0  0  0  0  0  0  0  0  0  0  0  0
   10.1263   29.5133   40.0302 C   0  0  0  0  0  0  0  0  0  0  0  0
    9.4280   30.6767   39.6151 N   0  0  0  0  0  0  0  0  0  0  0  0
   10.6502   27.7634   41.6323 C   0  0  0  0  0  0  0  0  0  0  0  0
   11.5809   27.2302   40.7228 C   0  0  0  0  0  0  0  0  0  0  0  0
   11.7529   27.8616   39.4846 C   0  0  0  0  0  0  0  0  0  0  0  0
   11.0385   28.9859   39.1395 C   0  0  0  0  0  0  0  0  0  0  0  0
    8.6690   28.8846   43.4756 C   0  0  1  0  0  0  0  0  0  0  0  0
    9.0210   27.4132   43.3243 C   0  0  0  0  0  0  0  0  0  0  0  0
   10.4550   27.1442   42.9365 C   0  0  2  0  0  0  0  0  0  0  0  0
    6.2630   34.0624   40.5605 O   0  0  0  0  0  0  0  0  0  0  0  0
   12.7434   27.3027   38.4949 C   0  0  0  0  0  0  0  0  0  0  0  0
   12.3878   26.0486   41.0222 C   0  0  0  0  0  0  0  0  0  0  0  0
    9.3770   29.3679   44.5394 O   0  0  0  0  0  0  0  0  0  0  0  0
   11.4208   27.7759   43.9455 C   0  0  0  0  0  0  0  0  0  0  0  0
   10.5641   25.6887   43.1123 C   0  0  0  0  0  0  0  0  0  0  0  0
    9.6276   31.3654   38.3790 C   0  0  0  0  0  0  0  0  0  0  0  0
    7.0554   30.8600   43.7190 O   0  0  0  0  0  0  0  0  0  0  0  0
   10.5583   32.5513   38.4562 C   0  0  1  0  0  0  0  0  0  0  0  0
   10.7086   33.0851   37.0441 C   0  0  1  0  0  0  0  0  0  0  0  0
   11.4186   34.4188   37.0290 C   0  0  1  0  0  0  0  0  0  0  0  0
   11.8657   34.6473   35.5830 C   0  0  0  0  0  0  0  0  0  0  0  0
   10.0368   33.5311   39.3060 O   0  0  0  0  0  0  0  0  0  0  0  0
   11.4433   32.2092   36.2465 O   0  0  0  0  0  0  0  0  0  0  0  0
   10.5965   35.4498   37.4179 O   0  0  0  0  0  0  0  0  0  0  0  0
   11.1992   35.7064   35.0153 O   0  0  0  0  0  0  0  0  0  0  0  0
   11.7263   36.0419   33.4435 P   0  0  2  0  0  5  0  0  0  0  0  0
   11.2484   34.8953   32.5602 O   0  0  0  0  0  0  0  0  0  0  0  0
   13.3861   36.2217   33.3691 O   0  0  0  0  0  0  0  0  0  0  0  0
   10.9774   37.4761   32.9579 O   0  0  0  0  0  0  0  0  0  0  0  0
  1  2  1  0
  2  3  1  0
  3  4  1  0
  4  5  2  0
  5  6  1  0
  1  6  2  0
  4  7  1  0
  7  8  1  0
  8  9  2  0
  9 10  1  0
  5 10  1  0
  8 11  1  0
 11 12  2  0
 12 13  1  0
 13 14  2  0
  9 14  1  0
  7 15  1  0
 16 15  1  6
 17 11  1  6
 16 17  1  0
  1 18  1  0
 19 13  1  1
 20 12  1  6
 15 21  1  1
 22 17  1  6
 23 17  1  6
 24 10  1  6
  3 25  2  0
 24 26  1  0
 26 27  1  0
 27 28  1  0
 28 29  1  0
 26 30  1  1
 27 31  1  6
 28 32  1  6
 29 33  1  6
 33 34  1  0
 34 35  2  0
 34 36  1  1
 34 37  1  0
M  END
$$$$
