7TM6_GPJ_A_502
     RDKit          3D

 10  9  0  0  0  0  0  0  0  0999 V2000
   -0.3831  -25.4594   46.5758 P   0  0  1  0  0  5  0  0  0  0  0  0
   -0.3890  -26.9601   46.7056 O   0  0  0  0  0  0  0  0  0  0  0  0
   -1.7325  -24.9127   47.4759 O   0  0  0  0  0  0  0  0  0  0  0  0
    0.9735  -24.8071   47.3746 O   0  0  0  0  0  0  0  0  0  0  0  0
   -4.2643  -23.9860   43.5833 O   0  0  0  0  0  0  0  0  0  0  0  0
   -3.5378  -23.0536   41.6624 O   0  0  0  0  0  0  0  0  0  0  0  0
   -0.4529  -24.8779   44.8856 C   0  0  0  0  0  0  0  0  0  0  0  0
   -1.8568  -23.9812   43.1314 C   0  0  0  0  0  0  0  0  0  0  0  0
   -3.2353  -23.6376   42.7263 C   0  0  0  0  0  0  0  0  0  0  0  0
   -1.7901  -24.6568   44.3984 N   0  0  0  0  0  0  0  0  0  0  0  0
  1  2  2  0
  1  3  1  1
  1  4  1  0
  7  1  1  1
  5  9  1  0
  6  9  2  0
  8  9  1  1
  7 10  1  0
 10  8  1  1
M  CHG  1  10   1
M  END
$$$$
