7SSM_B7L_A_4000
     RDKit          3D

 37 40  0  0  0  0  0  0  0  0999 V2000
   -7.9044  -11.8686   -5.1492 C   0  0  0  0  0  0  0  0  0  0  0  0
   -3.5246  -12.4827   -5.7357 C   0  0  0  0  0  0  0  0  0  0  0  0
   -4.7731  -13.9910   -4.6258 C   0  0  0  0  0  0  0  0  0  0  0  0
   -3.6567  -12.1926   -3.5822 C   0  0  0  0  0  0  0  0  0  0  0  0
   -5.5855  -13.4773   -3.1268 C   0  0  0  0  0  0  0  0  0  0  0  0
   -5.4466  -13.1757   -1.7656 C   0  0  0  0  0  0  0  0  0  0  0  0
   -4.3671  -12.3682   -1.3568 C   0  0  0  0  0  0  0  0  0  0  0  0
   -5.6786  -12.8269   -4.7348 C   0  0  0  0  0  0  0  0  0  0  0  0
   -7.0502  -12.9886   -5.0451 C   0  0  0  0  0  0  0  0  0  0  0  0
   -2.8854  -11.8448   -4.6721 C   0  0  0  0  0  0  0  0  0  0  0  0
   -1.6541  -11.0337   -4.7431 C   0  0  0  0  0  0  0  0  0  0  0  0
   -1.5965   -9.7109   -4.1901 N   0  0  0  0  0  0  0  0  0  0  0  0
   -0.6395  -11.5160   -5.3160 O   0  0  0  0  0  0  0  0  0  0  0  0
   -2.8157   -8.9713   -3.8676 C   0  0  0  0  0  0  0  0  0  0  0  0
   -4.0261   -9.8031   -4.1528 C   0  0  0  0  0  0  0  0  0  0  0  0
   -4.0041  -11.1197   -4.2476 O   0  0  0  0  0  0  0  0  0  0  0  0
   -5.2204  -11.5167   -4.5380 C   0  0  0  0  0  0  0  0  0  0  0  0
   -6.0571  -10.4348   -4.6402 C   0  0  0  0  0  0  0  0  0  0  0  0
   -5.3034   -9.3102   -4.3973 C   0  0  0  0  0  0  0  0  0  0  0  0
   -7.4075  -10.5704   -4.9458 C   0  0  0  0  0  0  0  0  0  0  0  0
   -5.2357  -15.1976   -4.1078 O   0  0  0  0  0  0  0  0  0  0  0  0
   -3.5731  -13.9003   -5.0015 O   0  0  0  0  0  0  0  0  0  0  0  0
   -4.6125  -13.1583   -5.2919 N   0  0  0  0  0  0  0  0  0  0  0  0
   -4.6702  -12.9673   -3.9855 N   0  0  0  0  0  0  0  0  0  0  0  0
   -3.4772  -11.8868   -2.2731 N   0  0  0  0  0  0  0  0  0  0  0  0
   -8.9503  -12.0110   -5.3881 H   0  0  0  0  0  0  0  0  0  0  0  0
   -3.2135  -12.4563   -6.7717 H   0  0  0  0  0  0  0  0  0  0  0  0
   -6.3950  -14.1029   -3.4809 H   0  0  0  0  0  0  0  0  0  0  0  0
   -6.1524  -13.5609   -1.0412 H   0  0  0  0  0  0  0  0  0  0  0  0
   -4.2391  -12.1292   -0.3095 H   0  0  0  0  0  0  0  0  0  0  0  0
   -7.4638  -13.9758   -5.2083 H   0  0  0  0  0  0  0  0  0  0  0  0
   -0.6692   -9.2858   -3.9686 H   0  0  0  0  0  0  0  0  0  0  0  0
   -2.8550   -8.0359   -4.4667 H   0  0  0  0  0  0  0  0  0  0  0  0
   -2.8107   -8.7014   -2.7898 H   0  0  0  0  0  0  0  0  0  0  0  0
   -5.6284   -8.2779   -4.4031 H   0  0  0  0  0  0  0  0  0  0  0  0
   -8.0547   -9.7063   -5.0247 H   0  0  0  0  0  0  0  0  0  0  0  0
   -4.6220  -15.9998   -4.0295 H   0  0  0  0  0  0  0  0  0  0  0  0
  5  6  4  0
  6  7  4  0
  3  8  1  0
  1  9  4  0
  8  9  4  0
  2 10  4  0
  4 10  4  0
 10 11  1  0
 11 12  1  0
 11 13  2  0
 12 14  1  0
 14 15  1  0
 15 16  4  0
 16 17  4  0
  8 17  4  0
 17 18  4  0
 15 19  4  0
 18 19  4  0
 18 20  4  0
  1 20  4  0
  3 21  1  0
  3 22  2  0
  2 23  4  0
 23 24  4  0
  4 24  4  0
  5 24  4  0
  4 25  4  0
  7 25  4  0
  1 26  1  0
  2 27  1  0
  5 28  1  0
  6 29  1  0
  7 30  1  0
  9 31  1  0
 12 32  1  0
 14 33  1  0
 14 34  1  0
 19 35  1  0
 20 36  1  0
 21 37  1  0
M  END
