6ZXQ_IMO_A_503
     RDKit          3D

 41 43  0  0  0  0  0  0  0  0999 V2000
   -2.8178   -0.8072   -1.8041 P   0  0  2  0  0  5  0  0  0  0  0  0
   -1.5867   -1.9433   -1.5707 O   0  0  0  0  0  0  0  0  0  0  0  0
   -2.1267    0.1314    3.1794 C   0  0  0  0  0  0  0  0  0  0  0  0
    2.2042   -0.0804    2.1466 C   0  0  1  0  0  0  0  0  0  0  0  0
    1.9617    0.8105    3.3613 C   0  0  1  0  0  0  0  0  0  0  0  0
    2.9481    0.2718    4.3702 C   0  0  1  0  0  0  0  0  0  0  0  0
    3.0797   -1.2006    3.9453 C   0  0  1  0  0  0  0  0  0  0  0  0
    2.2322   -2.1169    4.8370 C   0  0  0  0  0  0  0  0  0  0  0  0
   -4.1153   -1.5543   -2.5946 O   0  0  0  0  0  0  0  0  0  0  0  0
   -2.2928    0.3315   -2.6508 O   0  0  0  0  0  0  0  0  0  0  0  0
    0.7287   -0.5137    3.5796 P   0  0  1  0  0  5  0  0  0  0  0  0
   -0.8047    0.1917    3.7008 O   0  0  0  0  0  0  0  0  0  0  0  0
    0.8803   -1.2224    2.0474 O   0  0  0  0  0  0  0  0  0  0  0  0
    1.7809    0.5603    3.7582 O   0  0  0  0  0  0  0  0  0  0  0  0
    0.8900   -1.6929    4.8015 O   0  0  0  0  0  0  0  0  0  0  0  0
    2.6606   -1.3388    2.5988 O   0  0  0  0  0  0  0  0  0  0  0  0
    0.9773   -0.2282    1.3605 N   0  0  0  0  0  4  0  0  0  0  0  0
   -0.3005   -0.1288    1.7534 C   0  0  0  0  0  0  0  0  0  0  0  0
   -0.7734    0.0471    3.0107 N   0  0  0  0  0  0  0  0  0  0  0  0
   -2.9693    0.0468    2.0998 N   0  0  0  0  0  0  0  0  0  0  0  0
   -2.4878   -0.1278    0.8307 C   0  0  0  0  0  0  0  0  0  0  0  0
   -3.3362   -0.2077   -0.2764 O   0  0  0  0  0  0  0  0  0  0  0  0
   -1.1127   -0.2162    0.6756 C   0  0  0  0  0  0  0  0  0  0  0  0
   -0.3919   -0.3626   -0.4514 N   0  0  0  0  0  0  0  0  0  0  0  0
    0.8891   -0.3606    0.0116 C   0  0  0  0  0  0  0  0  0  0  0  0
    2.1175    2.1861    3.0990 O   0  0  0  0  0  0  0  0  0  0  0  0
    4.1901    0.9368    4.3150 O   0  0  0  0  0  0  0  0  0  0  0  0
   -1.0575   -1.5921   -0.8108 H   0  0  0  0  0  0  0  0  0  0  0  0
   -2.5361    0.2711    4.1699 H   0  0  0  0  0  0  0  0  0  0  0  0
    2.9978    0.3505    1.4958 H   0  0  0  0  0  0  0  0  0  0  0  0
    0.9316    0.6388    3.7481 H   0  0  0  0  0  0  0  0  0  0  0  0
    2.5424    0.3812    5.4008 H   0  0  0  0  0  0  0  0  0  0  0  0
    4.1397   -1.5288    4.0255 H   0  0  0  0  0  0  0  0  0  0  0  0
    2.3245   -3.1580    4.4532 H   0  0  0  0  0  0  0  0  0  0  0  0
    2.6311   -2.0661    5.8751 H   0  0  0  0  0  0  0  0  0  0  0  0
   -4.6943   -0.8111   -2.8984 H   0  0  0  0  0  0  0  0  0  0  0  0
   -0.8306    0.5863    4.6091 H   0  0  0  0  0  0  0  0  0  0  0  0
    1.7992   -1.0076    1.7499 H   0  0  0  0  0  0  0  0  0  0  0  0
    1.7516   -0.4317   -0.6392 H   0  0  0  0  0  0  0  0  0  0  0  0
    2.9638    2.3240    2.5998 H   0  0  0  0  0  0  0  0  0  0  0  0
    4.5976    0.7661    3.4256 H   0  0  0  0  0  0  0  0  0  0  0  0
  1  2  1  1
  4  5  1  0
  5  6  1  0
  6  7  1  0
  7  8  1  0
  1  9  1  0
  1 10  2  0
 11 12  1  6
 11 13  1  0
 11 14  2  0
  8 15  1  0
 11 15  1  0
  4 16  1  0
  7 16  1  0
  4 17  1  0
 17 18  4  0
  3 19  4  0
 18 19  4  0
  3 20  4  0
 20 21  4  0
  1 22  1  0
 21 22  1  0
 18 23  4  0
 21 23  4  0
 23 24  4  0
 17 25  4  0
 24 25  4  0
  5 26  1  0
  6 27  1  0
  2 28  1  0
  3 29  1  0
  4 30  1  6
  5 31  1  1
  6 32  1  1
  7 33  1  6
  8 34  1  0
  8 35  1  0
  9 36  1  0
 12 37  1  0
 13 38  1  0
 25 39  1  0
 26 40  1  0
 27 41  1  0
M  CHG  1  17   1
M  END
