7VBU_6I4_A_507
     RDKit          3D

 31 34  0  0  0  0  0  0  0  0999 V2000
   34.3951   36.3127   64.4936 C   0  0  0  0  0  0  0  0  0  0  0  0
   35.2092   37.4213   64.6948 C   0  0  0  0  0  0  0  0  0  0  0  0
   35.3844   38.3764   63.6937 C   0  0  0  0  0  0  0  0  0  0  0  0
   33.7103   36.1036   63.2807 C   0  0  0  0  0  0  0  0  0  0  0  0
   33.9091   37.0846   62.2941 C   0  0  0  0  0  0  0  0  0  0  0  0
   34.7209   38.2091   62.4619 C   0  0  0  0  0  0  0  0  0  0  0  0
   32.8146   34.9400   62.9720 C   0  0  2  0  0  0  0  0  0  0  0  0
   31.6553   34.5671   63.8693 C   0  0  0  0  0  0  0  0  0  0  0  0
   32.8634   33.6868   63.8127 C   0  0  0  0  0  0  0  0  0  0  0  0
   33.8352   38.2864   60.3849 C   0  0  0  0  0  0  0  0  0  0  0  0
   34.6726   38.9699   61.2538 C   0  0  0  0  0  0  0  0  0  0  0  0
   35.2379   40.1622   60.7792 C   0  0  0  0  0  0  0  0  0  0  0  0
   34.9103   40.5585   59.4788 C   0  0  0  0  0  0  0  0  0  0  0  0
   34.0502   39.7716   58.7076 C   0  0  0  0  0  0  0  0  0  0  0  0
   33.7025   40.2018   57.3109 C   0  0  0  0  0  0  0  0  0  0  0  0
   33.4893   38.6158   59.1307 N   0  0  0  0  0  0  0  0  0  0  0  0
   33.3940   37.1707   61.0219 N   0  0  0  0  0  4  0  0  0  0  0  0
   34.2896   35.6233   65.2543 H   0  0  0  0  0  0  0  0  0  0  0  0
   35.6915   37.5396   65.5993 H   0  0  0  0  0  0  0  0  0  0  0  0
   35.9922   39.1951   63.8530 H   0  0  0  0  0  0  0  0  0  0  0  0
   32.9196   35.1708   61.9325 H   0  0  0  0  0  0  0  0  0  0  0  0
   30.7326   34.2363   63.4404 H   0  0  0  0  0  0  0  0  0  0  0  0
   31.1163   35.0604   64.6510 H   0  0  0  0  0  0  0  0  0  0  0  0
   32.8030   32.7268   63.3440 H   0  0  0  0  0  0  0  0  0  0  0  0
   33.5432   33.2915   64.5383 H   0  0  0  0  0  0  0  0  0  0  0  0
   35.8717   40.7258   61.3671 H   0  0  0  0  0  0  0  0  0  0  0  0
   35.3027   41.4301   59.0894 H   0  0  0  0  0  0  0  0  0  0  0  0
   34.2001   41.1224   57.0870 H   0  0  0  0  0  0  0  0  0  0  0  0
   32.6444   40.3402   57.2333 H   0  0  0  0  0  0  0  0  0  0  0  0
   34.0156   39.4494   56.6175 H   0  0  0  0  0  0  0  0  0  0  0  0
   32.7837   36.5086   60.6239 H   0  0  0  0  0  0  0  0  0  0  0  0
  1  2  4  0
  2  3  4  0
  1  4  4  0
  4  5  4  0
  5  6  4  0
  3  6  4  0
  4  7  1  0
  7  8  1  0
  8  9  1  0
  7  9  1  0
 10 11  4  0
  6 11  4  0
 11 12  4  0
 12 13  4  0
 13 14  4  0
 14 15  1  0
 10 16  4  0
 14 16  4  0
 10 17  4  0
  5 17  4  0
  1 18  1  0
  2 19  1  0
  3 20  1  0
  7 21  1  6
  8 22  1  0
  8 23  1  0
  9 24  1  0
  9 25  1  0
 12 26  1  0
 13 27  1  0
 15 28  1  0
 15 29  1  0
 15 30  1  0
 17 31  1  0
M  CHG  1  17   1
M  END
