7WN5_JGL_A_501
     RDKit          3D

 57 61  0  0  0  0  0  0  0  0999 V2000
   -2.8280  -11.7327  -20.7909 F   0  0  0  0  0  0  0  0  0  0  0  0
   -2.9416  -10.8230  -21.7910 C   0  0  0  0  0  0  0  0  0  0  0  0
   -3.5471  -11.2045  -22.9932 C   0  0  0  0  0  0  0  0  0  0  0  0
   -3.6213  -10.3034  -24.0594 C   0  0  0  0  0  0  0  0  0  0  0  0
   -4.2068  -10.6772  -25.2236 F   0  0  0  0  0  0  0  0  0  0  0  0
   -3.0801   -9.0215  -23.9290 C   0  0  0  0  0  0  0  0  0  0  0  0
   -2.4737   -8.6361  -22.7298 C   0  0  0  0  0  0  0  0  0  0  0  0
   -2.4169   -9.5229  -21.6476 C   0  0  0  0  0  0  0  0  0  0  0  0
   -1.7940   -9.0999  -20.4654 O   0  0  0  0  0  0  0  0  0  0  0  0
   -2.2151   -9.4225  -19.1652 C   0  0  0  0  0  0  0  0  0  0  0  0
   -3.4389  -10.0747  -18.9380 C   0  0  0  0  0  0  0  0  0  0  0  0
   -3.8391  -10.3984  -17.6408 C   0  0  0  0  0  0  0  0  0  0  0  0
   -3.0413  -10.0573  -16.5404 C   0  0  0  0  0  0  0  0  0  0  0  0
   -3.4801  -10.4224  -15.2190 N   0  0  0  0  0  0  0  0  0  0  0  0
   -2.9280   -9.6834  -13.7451 S   0  0  1  0  0  6  0  0  0  0  0  0
   -1.4261   -9.6725  -13.6815 O   0  0  0  0  0  0  0  0  0  0  0  0
   -3.4067   -8.2594  -13.7211 O   0  0  0  0  0  0  0  0  0  0  0  0
   -3.6084  -10.5307  -12.3257 C   0  0  2  0  0  0  0  0  0  0  0  0
   -4.4516   -9.6021  -11.4633 C   0  0  2  0  0  0  0  0  0  0  0  0
   -1.8221   -9.3964  -16.7652 C   0  0  0  0  0  0  0  0  0  0  0  0
   -1.4086   -9.0662  -18.0669 C   0  0  0  0  0  0  0  0  0  0  0  0
   -0.1180   -8.3677  -18.2644 C   0  0  0  0  0  0  0  0  0  0  0  0
    0.0215   -7.3189  -19.2003 C   0  0  0  0  0  0  0  0  0  0  0  0
    1.2229   -6.6619  -19.3621 N   0  0  0  0  0  0  0  0  0  0  0  0
    1.3198   -5.5662  -20.3339 C   0  0  1  0  0  0  0  0  0  0  0  0
    2.3157   -6.9962  -18.5946 C   0  0  0  0  0  0  0  0  0  0  0  0
    3.4136   -6.3871  -18.7211 O   0  0  0  0  0  0  0  0  0  0  0  0
    2.1889   -8.0260  -17.6677 C   0  0  0  0  0  0  0  0  0  0  0  0
    3.0920   -8.5802  -16.7879 C   0  0  0  0  0  0  0  0  0  0  0  0
    1.0100   -8.6932  -17.5119 C   0  0  0  0  0  0  0  0  0  0  0  0
    1.1311   -9.6285  -16.6003 O   0  0  0  0  0  0  0  0  0  0  0  0
    2.3707   -9.5843  -16.1472 C   0  0  0  0  0  0  0  0  0  0  0  0
    2.8898  -10.4888  -15.1124 C   0  0  0  0  0  0  0  0  0  0  0  0
    2.1400  -11.3104  -14.3020 C   0  0  0  0  0  0  0  0  0  0  0  0
    2.9639  -11.9902  -13.4799 N   0  0  0  0  0  0  0  0  0  0  0  0
    4.2000  -11.5612  -13.8149 C   0  0  0  0  0  0  0  0  0  0  0  0
    4.1869  -10.6497  -14.8053 N   0  0  0  0  0  0  0  0  0  0  0  0
   -3.9492  -12.2036  -23.1022 H   0  0  0  0  0  0  0  0  0  0  0  0
   -3.1285   -8.3260  -24.7570 H   0  0  0  0  0  0  0  0  0  0  0  0
   -2.0558   -7.6417  -22.6361 H   0  0  0  0  0  0  0  0  0  0  0  0
   -4.0883  -10.3290  -19.7655 H   0  0  0  0  0  0  0  0  0  0  0  0
   -4.7828  -10.9082  -17.4918 H   0  0  0  0  0  0  0  0  0  0  0  0
   -4.2876  -11.0788  -15.1275 H   0  0  0  0  0  0  0  0  0  0  0  0
   -2.7734  -10.9386  -11.7179 H   0  0  0  0  0  0  0  0  0  0  0  0
   -4.2356  -11.3773  -12.6768 H   0  0  0  0  0  0  0  0  0  0  0  0
   -5.4981   -9.9718  -11.4361 H   0  0  0  0  0  0  0  0  0  0  0  0
   -4.4539   -8.5760  -11.8872 H   0  0  0  0  0  0  0  0  0  0  0  0
   -4.0592   -9.5800  -10.4252 H   0  0  0  0  0  0  0  0  0  0  0  0
   -1.1819   -9.1360  -15.9383 H   0  0  0  0  0  0  0  0  0  0  0  0
   -0.8417   -7.0222  -19.7850 H   0  0  0  0  0  0  0  0  0  0  0  0
    1.5164   -4.6116  -19.8013 H   0  0  0  0  0  0  0  0  0  0  0  0
    2.1460   -5.7630  -21.0504 H   0  0  0  0  0  0  0  0  0  0  0  0
    0.3841   -5.4561  -20.9237 H   0  0  0  0  0  0  0  0  0  0  0  0
    4.1274   -8.3025  -16.6413 H   0  0  0  0  0  0  0  0  0  0  0  0
    1.0636  -11.4174  -14.3111 H   0  0  0  0  0  0  0  0  0  0  0  0
    5.1044  -11.9144  -13.3374 H   0  0  0  0  0  0  0  0  0  0  0  0
    5.0128  -10.1746  -15.2321 H   0  0  0  0  0  0  0  0  0  0  0  0
  1  2  1  0
  2  3  2  0
  3  4  1  0
  4  5  1  0
  4  6  2  0
  6  7  1  0
  2  8  1  0
  7  8  2  0
  8  9  1  0
  9 10  1  0
 10 11  2  0
 11 12  1  0
 12 13  2  0
 13 14  1  0
 15 14  1  6
 15 16  2  0
 15 17  2  0
 15 18  1  0
 18 19  1  0
 13 20  1  0
 10 21  1  0
 20 21  2  0
 21 22  1  0
 22 23  2  0
 23 24  1  0
 24 25  1  0
 24 26  1  0
 26 27  2  0
 26 28  1  0
 28 29  1  0
 28 30  2  0
 22 30  1  0
 30 31  1  0
 29 32  2  0
 31 32  1  0
 32 33  1  0
 33 34  2  0
 34 35  1  0
 35 36  2  0
 36 37  1  0
 33 37  1  0
  3 38  1  0
  6 39  1  0
  7 40  1  0
 11 41  1  0
 12 42  1  0
 14 43  1  0
 18 44  1  1
 18 45  1  0
 19 46  1  1
 19 47  1  0
 19 48  1  0
 20 49  1  0
 23 50  1  0
 25 51  1  1
 25 52  1  0
 25 53  1  0
 29 54  1  0
 34 55  1  0
 36 56  1  0
 37 57  1  0
M  END
