7TBU_S3P_A_902
     RDKit          3D

 27 27  0  0  0  0  0  0  0  0999 V2000
   25.2483   71.6844    5.7429 C   0  0  0  0  0  0  0  0  0  0  0  0
   24.9659   70.9717    7.1505 C   0  0  0  0  0  0  0  0  0  0  0  0
   25.4314   69.6221    7.3769 C   0  0  2  0  0  0  0  0  0  0  0  0
   26.5853   69.1481    6.2985 C   0  0  2  0  0  0  0  0  0  0  0  0
   26.2199   69.3728    4.9876 C   0  0  1  0  0  0  0  0  0  0  0  0
   25.8822   70.9590    4.6621 C   0  0  0  0  0  0  0  0  0  0  0  0
   24.5052   72.9833    5.4320 C   0  0  0  0  0  0  0  0  0  0  0  0
   24.3331   68.7561    7.2813 O   0  0  0  0  0  0  0  0  0  0  0  0
   26.7699   67.7388    6.4940 O   0  0  0  0  0  0  0  0  0  0  0  0
   27.2916   68.9770    4.1130 O   0  0  0  0  0  0  0  0  0  0  0  0
   23.8745   73.5843    6.3410 O   0  0  0  0  0  0  0  0  0  0  0  0
   24.5282   73.4449    4.2614 O   0  0  0  0  0  0  0  0  0  0  0  0
   24.5733   67.1301    7.0647 P   0  0  2  0  0  5  0  0  0  0  0  0
   23.2953   66.3620    7.3043 O   0  0  0  0  0  0  0  0  0  0  0  0
   25.6171   66.6866    8.0651 O   0  0  0  0  0  0  0  0  0  0  0  0
   25.0420   66.9543    5.6506 O   0  0  0  0  0  0  0  0  0  0  0  0
   24.4538   71.4744    7.8922 H   0  0  0  0  0  0  0  0  0  0  0  0
   25.8797   69.5905    8.3479 H   0  0  0  0  0  0  0  0  0  0  0  0
   27.4765   69.7152    6.4693 H   0  0  0  0  0  0  0  0  0  0  0  0
   25.3316   68.7983    4.8269 H   0  0  0  0  0  0  0  0  0  0  0  0
   26.8019   71.4524    4.4259 H   0  0  0  0  0  0  0  0  0  0  0  0
   25.1818   70.9555    3.8533 H   0  0  0  0  0  0  0  0  0  0  0  0
   25.9335   67.2768    6.3263 H   0  0  0  0  0  0  0  0  0  0  0  0
   28.0737   69.5219    4.2928 H   0  0  0  0  0  0  0  0  0  0  0  0
   23.8608   73.2360    7.2108 H   0  0  0  0  0  0  0  0  0  0  0  0
   25.2781   66.8153    8.9648 H   0  0  0  0  0  0  0  0  0  0  0  0
   24.3475   67.2487    5.0408 H   0  0  0  0  0  0  0  0  0  0  0  0
  1  2  2  0
  2  3  1  0
  3  4  1  0
  4  5  1  0
  1  6  1  0
  5  6  1  0
  1  7  1  0
  3  8  1  0
  4  9  1  0
  5 10  1  0
  7 11  1  0
  7 12  2  0
 13  8  1  1
 13 14  2  0
 13 15  1  0
 13 16  1  0
  2 17  1  0
  3 18  1  1
  4 19  1  1
  5 20  1  6
  6 21  1  0
  6 22  1  0
  9 23  1  0
 10 24  1  0
 11 25  1  0
 15 26  1  0
 16 27  1  0
M  END
