7K0V_VQP_B_801
     RDKit          3D

 32 34  0  0  0  0  0  0  0  0999 V2000
    6.8550    3.2080  -22.7440 C   0  0  0  0  0  0  0  0  0  0  0  0
    6.5000    2.5580  -23.9130 C   0  0  0  0  0  0  0  0  0  0  0  0
    5.6030    1.5060  -23.8320 C   0  0  0  0  0  0  0  0  0  0  0  0
    5.0460    1.1540  -22.6120 C   0  0  0  0  0  0  0  0  0  0  0  0
    2.1180    1.1760  -21.9080 C   0  0  0  0  0  0  0  0  0  0  0  0
    1.0770   -1.3570  -21.3750 C   0  0  0  0  0  0  0  0  0  0  0  0
   -1.4320   -3.9770  -20.3140 C   0  0  0  0  0  0  0  0  0  0  0  0
    6.8560    3.5740  -28.7440 C   0  0  0  0  0  0  0  0  0  0  0  0
    6.3580    5.3570  -30.5110 C   0  0  0  0  0  0  0  0  0  0  0  0
    4.8730    1.5030  -20.0850 C   0  0  0  0  0  0  0  0  0  0  0  0
    0.8350    1.0600  -21.4150 C   0  0  0  0  0  0  0  0  0  0  0  0
    0.2990   -0.2010  -21.1450 C   0  0  0  0  0  0  0  0  0  0  0  0
    2.3750   -1.2270  -21.8780 C   0  0  0  0  0  0  0  0  0  0  0  0
    0.4580   -2.6540  -21.0800 C   0  0  0  0  0  0  0  0  0  0  0  0
   -1.4830   -1.5110  -20.4240 C   0  0  0  0  0  0  0  0  0  0  0  0
    5.4120    1.8330  -21.4490 C   0  0  0  0  0  0  0  0  0  0  0  0
    6.5720    3.0390  -26.3370 C   0  0  0  0  0  0  0  0  0  0  0  0
    6.9540    5.0490  -29.1360 C   0  0  0  0  0  0  0  0  0  0  0  0
    7.3240    4.8830  -31.5950 C   0  0  0  0  0  0  0  0  0  0  0  0
    6.3160    2.8600  -21.5250 C   0  0  0  0  0  0  0  0  0  0  0  0
    4.9930    4.6840  -30.7220 C   0  0  0  0  0  0  0  0  0  0  0  0
    6.1760    6.8680  -30.5930 C   0  0  0  0  0  0  0  0  0  0  0  0
    2.8730    0.0310  -22.1260 C   0  0  0  0  0  0  0  0  0  0  0  0
    3.1720   -2.2890  -22.1390 F   0  0  0  0  0  0  0  0  0  0  0  0
    7.7350    4.2140  -22.8060 F   0  0  0  0  0  0  0  0  0  0  0  0
   -0.8060   -2.6740  -20.6170 N   0  0  0  0  0  0  0  0  0  0  0  0
   -0.9640   -0.3460  -20.6650 N   0  0  0  0  0  0  0  0  0  0  0  0
    7.1270    2.9630  -25.1060 N   0  0  0  0  0  0  0  0  0  0  0  0
    7.3490    3.4500  -27.3640 N   0  0  0  0  0  0  0  0  0  0  0  0
    4.1660    0.0690  -22.6180 N   0  0  0  0  0  0  0  0  0  0  0  0
    1.0550   -3.6990  -21.2310 O   0  0  0  0  0  0  0  0  0  0  0  0
    5.4090    2.7500  -26.5250 O   0  0  0  0  0  0  0  0  0  0  0  0
  1  2  2  0
  2  3  1  0
  3  4  2  0
  5 11  2  0
 11 12  1  0
  6 12  2  0
  6 13  1  0
  6 14  1  0
  4 16  1  0
 10 16  1  0
  9 18  1  0
  8 18  1  0
  9 19  1  0
  1 20  1  0
 16 20  2  0
  9 21  1  0
  9 22  1  0
  5 23  1  0
 13 23  2  0
 13 24  1  0
  1 25  1  0
 14 26  1  0
 15 26  1  0
  7 26  1  0
 12 27  1  0
 15 27  2  0
 17 28  1  0
  2 28  1  0
  8 29  1  0
 17 29  1  0
  4 30  1  0
 23 30  1  0
 14 31  2  0
 17 32  2  0
M  END
$$$$
