7K0V_VQP_B_801
     RDKit          3D

 32 34  0  0  0  0  0  0  0  0999 V2000
    6.8550    3.2080  -22.7440 C   0  0  0  0  0  0  0  0  0  0  0  0
    6.5000    2.5580  -23.9130 C   0  0  0  0  0  0  0  0  0  0  0  0
    5.6030    1.5060  -23.8320 C   0  0  0  0  0  0  0  0  0  0  0  0
    5.0460    1.1540  -22.6120 C   0  0  0  0  0  0  0  0  0  0  0  0
    2.1180    1.1760  -21.9080 C   0  0  0  0  0  0  0  0  0  0  0  0
    1.0770   -1.3570  -21.3750 C   0  0  0  0  0  0  0  0  0  0  0  0
   -1.4320   -3.9770  -20.3140 C   0  0  0  0  0  0  0  0  0  0  0  0
    6.8560    3.5740  -28.7440 C   0  0  0  0  0  0  0  0  0  0  0  0
    6.3580    5.3570  -30.5110 C   0  0  0  0  0  0  0  0  0  0  0  0
    4.8730    1.5030  -20.0850 C   0  0  0  0  0  0  0  0  0  0  0  0
    0.8350    1.0600  -21.4150 C   0  0  0  0  0  0  0  0  0  0  0  0
    0.2990   -0.2010  -21.1450 C   0  0  0  0  0  0  0  0  0  0  0  0
    2.3750   -1.2270  -21.8780 C   0  0  0  0  0  0  0  0  0  0  0  0
    0.4580   -2.6540  -21.0800 C   0  0  0  0  0  0  0  0  0  0  0  0
   -1.4830   -1.5110  -20.4240 C   0  0  0  0  0  0  0  0  0  0  0  0
    5.4120    1.8330  -21.4490 C   0  0  0  0  0  0  0  0  0  0  0  0
    6.5720    3.0390  -26.3370 C   0  0  0  0  0  0  0  0  0  0  0  0
    6.9540    5.0490  -29.1360 C   0  0  0  0  0  0  0  0  0  0  0  0
    7.3240    4.8830  -31.5950 C   0  0  0  0  0  0  0  0  0  0  0  0
    6.3160    2.8600  -21.5250 C   0  0  0  0  0  0  0  0  0  0  0  0
    4.9930    4.6840  -30.7220 C   0  0  0  0  0  0  0  0  0  0  0  0
    6.1760    6.8680  -30.5930 C   0  0  0  0  0  0  0  0  0  0  0  0
    2.8730    0.0310  -22.1260 C   0  0  0  0  0  0  0  0  0  0  0  0
    3.1720   -2.2890  -22.1390 F   0  0  0  0  0  0  0  0  0  0  0  0
    7.7350    4.2140  -22.8060 F   0  0  0  0  0  0  0  0  0  0  0  0
   -0.8060   -2.6740  -20.6170 N   0  0  0  0  0  0  0  0  0  0  0  0
   -0.9640   -0.3460  -20.6650 N   0  0  0  0  0  0  0  0  0  0  0  0
    7.1270    2.9630  -25.1060 N   0  0  0  0  0  0  0  0  0  0  0  0
    7.3490    3.4500  -27.3640 N   0  0  0  0  0  0  0  0  0  0  0  0
    4.1660    0.0690  -22.6180 N   0  0  0  0  0  0  0  0  0  0  0  0
    1.0550   -3.6990  -21.2310 O   0  0  0  0  0  0  0  0  0  0  0  0
    5.4090    2.7500  -26.5250 O   0  0  0  0  0  0  0  0  0  0  0  0
  1  2  2  0
  2  3  1  0
  3  4  2  0
  5 11  2  0
 11 12  1  0
  6 12  2  0
  6 13  1  0
  6 14  1  0
  4 16  1  0
 10 16  1  0
  9 18  1  0
  8 18  1  0
  9 19  1  0
  1 20  1  0
 16 20  2  0
  9 21  1  0
  9 22  1  0
  5 23  1  0
 13 23  2  0
 13 24  1  0
  1 25  1  0
 14 26  1  0
 15 26  1  0
  7 26  1  0
 12 27  1  0
 15 27  2  0
 17 28  1  0
  2 28  1  0
  8 29  1  0
 17 29  1  0
  4 30  1  0
 23 30  1  0
 14 31  2  0
 17 32  2  0
M  END
$$$$
7K0V_VQP_C_801
     RDKit          3D

 32 34  0  0  0  0  0  0  0  0999 V2000
   34.9820   27.0130  -34.2790 C   0  0  0  0  0  0  0  0  0  0  0  0
   34.2670   27.0930  -35.4650 C   0  0  0  0  0  0  0  0  0  0  0  0
   33.0070   27.6640  -35.4250 C   0  0  0  0  0  0  0  0  0  0  0  0
   32.4820   28.1230  -34.2140 C   0  0  0  0  0  0  0  0  0  0  0  0
   31.7850   31.0360  -33.6640 C   0  0  0  0  0  0  0  0  0  0  0  0
   29.0940   31.5860  -33.4850 C   0  0  0  0  0  0  0  0  0  0  0  0
   25.9120   33.5310  -32.9380 C   0  0  0  0  0  0  0  0  0  0  0  0
   36.0230   27.1070  -40.1310 C   0  0  0  0  0  0  0  0  0  0  0  0
   37.9010   28.1420  -41.5880 C   0  0  0  0  0  0  0  0  0  0  0  0
   32.7130   28.4970  -31.6960 C   0  0  0  0  0  0  0  0  0  0  0  0
   31.3820   32.3220  -33.3640 C   0  0  0  0  0  0  0  0  0  0  0  0
   30.0290   32.6140  -33.2600 C   0  0  0  0  0  0  0  0  0  0  0  0
   29.5200   30.2980  -33.7890 C   0  0  0  0  0  0  0  0  0  0  0  0
   27.6680   31.9070  -33.3890 C   0  0  0  0  0  0  0  0  0  0  0  0
   28.3150   34.0950  -32.8210 C   0  0  0  0  0  0  0  0  0  0  0  0
   33.2220   28.0170  -33.0370 C   0  0  0  0  0  0  0  0  0  0  0  0
   35.0350   27.1780  -37.8340 C   0  0  0  0  0  0  0  0  0  0  0  0
   37.4860   27.5560  -40.2270 C   0  0  0  0  0  0  0  0  0  0  0  0
   37.9260   27.0760  -42.6670 C   0  0  0  0  0  0  0  0  0  0  0  0
   34.4770   27.4650  -33.0800 C   0  0  0  0  0  0  0  0  0  0  0  0
   37.0210   29.2950  -42.0600 C   0  0  0  0  0  0  0  0  0  0  0  0
   39.3050   28.7080  -41.4650 C   0  0  0  0  0  0  0  0  0  0  0  0
   30.8600   30.0190  -33.8800 C   0  0  0  0  0  0  0  0  0  0  0  0
   28.6490   29.2860  -34.0090 F   0  0  0  0  0  0  0  0  0  0  0  0
   36.2120   26.4650  -34.2920 F   0  0  0  0  0  0  0  0  0  0  0  0
   27.3440   33.1690  -33.0480 N   0  0  0  0  0  0  0  0  0  0  0  0
   29.5810   33.8510  -32.9410 N   0  0  0  0  0  0  0  0  0  0  0  0
   34.9270   26.5810  -36.6140 N   0  0  0  0  0  0  0  0  0  0  0  0
   35.7860   26.5480  -38.7820 N   0  0  0  0  0  0  0  0  0  0  0  0
   31.1920   28.6770  -34.1960 N   0  0  0  0  0  0  0  0  0  0  0  0
   26.8090   31.0650  -33.6220 O   0  0  0  0  0  0  0  0  0  0  0  0
   34.4730   28.2430  -38.0810 O   0  0  0  0  0  0  0  0  0  0  0  0
  1  2  2  0
  2  3  1  0
  3  4  2  0
  5 11  2  0
 11 12  1  0
  6 12  2  0
  6 13  1  0
  6 14  1  0
  4 16  1  0
 10 16  1  0
  9 18  1  0
  8 18  1  0
  9 19  1  0
  1 20  1  0
 16 20  2  0
  9 21  1  0
  9 22  1  0
  5 23  1  0
 13 23  2  0
 13 24  1  0
  1 25  1  0
 14 26  1  0
 15 26  1  0
  7 26  1  0
 12 27  1  0
 15 27  2  0
 17 28  1  0
  2 28  1  0
  8 29  1  0
 17 29  1  0
  4 30  1  0
 23 30  1  0
 14 31  2  0
 17 32  2  0
M  END
$$$$
7K0V_VQP_A_801
     RDKit          3D

 32 34  0  0  0  0  0  0  0  0999 V2000
   34.5900  -10.2900  -23.7950 C   0  0  0  0  0  0  0  0  0  0  0  0
   35.0650   -9.4800  -24.8100 C   0  0  0  0  0  0  0  0  0  0  0  0
   35.8720   -8.4020  -24.4720 C   0  0  0  0  0  0  0  0  0  0  0  0
   36.2190   -8.1630  -23.1470 C   0  0  0  0  0  0  0  0  0  0  0  0
   38.9940   -8.1020  -21.9040 C   0  0  0  0  0  0  0  0  0  0  0  0
   39.8360   -5.5650  -21.2230 C   0  0  0  0  0  0  0  0  0  0  0  0
   41.9400   -2.8070  -19.7770 C   0  0  0  0  0  0  0  0  0  0  0  0
   35.6640  -10.3040  -29.6480 C   0  0  0  0  0  0  0  0  0  0  0  0
   36.6720  -12.0970  -31.1230 C   0  0  0  0  0  0  0  0  0  0  0  0
   36.0280   -8.8210  -20.6690 C   0  0  0  0  0  0  0  0  0  0  0  0
   40.1830   -7.9500  -21.2200 C   0  0  0  0  0  0  0  0  0  0  0  0
   40.6100   -6.6770  -20.8750 C   0  0  0  0  0  0  0  0  0  0  0  0
   38.6500   -5.7300  -21.9090 C   0  0  0  0  0  0  0  0  0  0  0  0
   40.2960   -4.2260  -20.8440 C   0  0  0  0  0  0  0  0  0  0  0  0
   42.1530   -5.2520  -19.8940 C   0  0  0  0  0  0  0  0  0  0  0  0
   35.7270   -9.0010  -22.1390 C   0  0  0  0  0  0  0  0  0  0  0  0
   35.4470   -9.8390  -27.2160 C   0  0  0  0  0  0  0  0  0  0  0  0
   36.0080  -11.7930  -29.7840 C   0  0  0  0  0  0  0  0  0  0  0  0
   35.6850  -11.7400  -32.2360 C   0  0  0  0  0  0  0  0  0  0  0  0
   34.9220  -10.0640  -22.4790 C   0  0  0  0  0  0  0  0  0  0  0  0
   37.9470  -11.2730  -31.2700 C   0  0  0  0  0  0  0  0  0  0  0  0
   37.0180  -13.5780  -31.2240 C   0  0  0  0  0  0  0  0  0  0  0  0
   38.2320   -6.9890  -22.2410 C   0  0  0  0  0  0  0  0  0  0  0  0
   37.8880   -4.6640  -22.2480 F   0  0  0  0  0  0  0  0  0  0  0  0
   33.8040  -11.3320  -24.1040 F   0  0  0  0  0  0  0  0  0  0  0  0
   41.4570   -4.1250  -20.1900 N   0  0  0  0  0  0  0  0  0  0  0  0
   41.7630   -6.4520  -20.2030 N   0  0  0  0  0  0  0  0  0  0  0  0
   34.6540   -9.7770  -26.1290 N   0  0  0  0  0  0  0  0  0  0  0  0
   34.8900  -10.1660  -28.4050 N   0  0  0  0  0  0  0  0  0  0  0  0
   37.0180   -7.0390  -22.9150 N   0  0  0  0  0  0  0  0  0  0  0  0
   39.6440   -3.2370  -21.1070 O   0  0  0  0  0  0  0  0  0  0  0  0
   36.6330   -9.6030  -27.1230 O   0  0  0  0  0  0  0  0  0  0  0  0
  1  2  2  0
  2  3  1  0
  3  4  2  0
  5 11  2  0
 11 12  1  0
  6 12  2  0
  6 13  1  0
  6 14  1  0
  4 16  1  0
 10 16  1  0
  9 18  1  0
  8 18  1  0
  9 19  1  0
  1 20  1  0
 16 20  2  0
  9 21  1  0
  9 22  1  0
  5 23  1  0
 13 23  2  0
 13 24  1  0
  1 25  1  0
 14 26  1  0
 15 26  1  0
  7 26  1  0
 12 27  1  0
 15 27  2  0
 17 28  1  0
  2 28  1  0
  8 29  1  0
 17 29  1  0
  4 30  1  0
 23 30  1  0
 14 31  2  0
 17 32  2  0
M  END
$$$$
7K0V_VQP_D_801
     RDKit          3D

 32 34  0  0  0  0  0  0  0  0999 V2000
    8.9220  -33.0960  -33.3400 C   0  0  0  0  0  0  0  0  0  0  0  0
    9.8010  -33.1580  -34.3980 C   0  0  0  0  0  0  0  0  0  0  0  0
   11.0880  -33.6440  -34.1740 C   0  0  0  0  0  0  0  0  0  0  0  0
   11.4580  -34.0420  -32.8870 C   0  0  0  0  0  0  0  0  0  0  0  0
   12.3000  -36.8500  -32.1180 C   0  0  0  0  0  0  0  0  0  0  0  0
   15.0080  -37.1700  -31.5420 C   0  0  0  0  0  0  0  0  0  0  0  0
   18.2260  -38.8710  -30.4730 C   0  0  0  0  0  0  0  0  0  0  0  0
    8.7340  -33.5810  -39.1670 C   0  0  0  0  0  0  0  0  0  0  0  0
    7.2050  -34.5290  -40.9020 C   0  0  0  0  0  0  0  0  0  0  0  0
   10.8740  -34.3410  -30.4180 C   0  0  0  0  0  0  0  0  0  0  0  0
   12.7740  -38.0790  -31.6930 C   0  0  0  0  0  0  0  0  0  0  0  0
   14.1280  -38.2620  -31.4020 C   0  0  0  0  0  0  0  0  0  0  0  0
   14.5200  -35.9330  -31.9750 C   0  0  0  0  0  0  0  0  0  0  0  0
   16.4300  -37.3860  -31.2270 C   0  0  0  0  0  0  0  0  0  0  0  0
   15.8840  -39.6040  -30.6690 C   0  0  0  0  0  0  0  0  0  0  0  0
   10.5410  -33.9420  -31.8330 C   0  0  0  0  0  0  0  0  0  0  0  0
    9.3490  -33.3750  -36.8080 C   0  0  0  0  0  0  0  0  0  0  0  0
    7.3070  -34.0510  -39.4620 C   0  0  0  0  0  0  0  0  0  0  0  0
    7.3770  -33.3540  -41.8530 C   0  0  0  0  0  0  0  0  0  0  0  0
    9.2740  -33.4740  -32.0700 C   0  0  0  0  0  0  0  0  0  0  0  0
    8.2930  -35.5630  -41.1590 C   0  0  0  0  0  0  0  0  0  0  0  0
    5.8440  -35.1450  -41.1750 C   0  0  0  0  0  0  0  0  0  0  0  0
   13.1720  -35.7740  -32.2550 C   0  0  0  0  0  0  0  0  0  0  0  0
   15.3570  -34.8700  -32.1120 F   0  0  0  0  0  0  0  0  0  0  0  0
    7.6890  -32.6270  -33.5760 F   0  0  0  0  0  0  0  0  0  0  0  0
   16.8100  -38.6120  -30.7900 N   0  0  0  0  0  0  0  0  0  0  0  0
   14.6280  -39.4490  -30.9700 N   0  0  0  0  0  0  0  0  0  0  0  0
    9.2480  -32.7280  -35.6200 N   0  0  0  0  0  0  0  0  0  0  0  0
    8.6900  -32.8640  -37.8790 N   0  0  0  0  0  0  0  0  0  0  0  0
   12.7660  -34.4980  -32.6750 N   0  0  0  0  0  0  0  0  0  0  0  0
   17.2380  -36.4890  -31.3520 O   0  0  0  0  0  0  0  0  0  0  0  0
   10.0230  -34.3920  -36.9480 O   0  0  0  0  0  0  0  0  0  0  0  0
  1  2  2  0
  2  3  1  0
  3  4  2  0
  5 11  2  0
 11 12  1  0
  6 12  2  0
  6 13  1  0
  6 14  1  0
  4 16  1  0
 10 16  1  0
  9 18  1  0
  8 18  1  0
  9 19  1  0
  1 20  1  0
 16 20  2  0
  9 21  1  0
  9 22  1  0
  5 23  1  0
 13 23  2  0
 13 24  1  0
  1 25  1  0
 14 26  1  0
 15 26  1  0
  7 26  1  0
 12 27  1  0
 15 27  2  0
 17 28  1  0
  2 28  1  0
  8 29  1  0
 17 29  1  0
  4 30  1  0
 23 30  1  0
 14 31  2  0
 17 32  2  0
M  END
$$$$
