7JG0_GAR_A_1101
     RDKit          3D

 31 31  0  0  0  0  0  0  0  0999 V2000
   -1.5247    0.5923    1.3765 C   0  0  1  0  0  0  0  0  0  0  0  0
   -1.4921    1.3774    2.5471 O   0  0  0  0  0  0  0  0  0  0  0  0
   -0.8506    1.2790    0.2100 C   0  0  1  0  0  0  0  0  0  0  0  0
   -0.8550    2.6778    0.3309 O   0  0  0  0  0  0  0  0  0  0  0  0
    0.5670    0.7276    0.2791 C   0  0  1  0  0  0  0  0  0  0  0  0
    0.5133   -0.5715    0.8260 O   0  0  0  0  0  0  0  0  0  0  0  0
   -0.6989   -0.6943    1.5436 C   0  0  2  0  0  0  0  0  0  0  0  0
   -1.4533   -1.9353    1.0491 C   0  0  0  0  0  0  0  0  0  0  0  0
   -1.7136   -1.8168   -0.3310 O   0  0  0  0  0  0  0  0  0  0  0  0
    1.1925    0.6834   -1.0448 N   0  0  0  0  0  0  0  0  0  0  0  0
    2.5469    0.2481   -1.2241 C   0  0  0  0  0  0  0  0  0  0  0  0
    3.2371   -0.1138   -0.2327 O   0  0  0  0  0  0  0  0  0  0  0  0
    3.1378    0.1827   -2.5983 C   0  0  0  0  0  0  0  0  0  0  0  0
    2.6192   -0.9825   -3.3057 N   0  0  0  0  0  0  0  0  0  0  0  0
   -2.5874   -3.1908   -0.8354 P   0  0  0  0  0  5  0  0  0  0  0  0
   -3.9450   -3.2153   -0.1696 O   0  0  0  0  0  0  0  0  0  0  0  0
   -1.7405   -4.6033   -0.4462 O   0  0  0  0  0  1  0  0  0  0  0  0
   -2.7971   -3.1210   -2.5116 O   0  0  0  0  0  1  0  0  0  0  0  0
   -2.5895    0.3825    1.1305 H   0  0  0  0  0  0  0  0  0  0  0  0
   -0.5423    1.5609    2.7729 H   0  0  0  0  0  0  0  0  0  0  0  0
   -1.3461    0.9648   -0.7392 H   0  0  0  0  0  0  0  0  0  0  0  0
   -1.7829    2.9721    0.1361 H   0  0  0  0  0  0  0  0  0  0  0  0
    1.1853    1.3676    0.9490 H   0  0  0  0  0  0  0  0  0  0  0  0
   -0.4583   -0.8542    2.6183 H   0  0  0  0  0  0  0  0  0  0  0  0
   -2.3989   -2.0280    1.6314 H   0  0  0  0  0  0  0  0  0  0  0  0
   -0.8148   -2.8252    1.2502 H   0  0  0  0  0  0  0  0  0  0  0  0
    0.6585    0.9937   -1.8885 H   0  0  0  0  0  0  0  0  0  0  0  0
    2.8662    1.1057   -3.1548 H   0  0  0  0  0  0  0  0  0  0  0  0
    4.2482    0.1296   -2.5381 H   0  0  0  0  0  0  0  0  0  0  0  0
    3.0156   -1.8404   -2.8568 H   0  0  0  0  0  0  0  0  0  0  0  0
    2.9964   -0.9561   -4.2807 H   0  0  0  0  0  0  0  0  0  0  0  0
  1  2  1  0
  1  3  1  0
  3  4  1  0
  3  5  1  0
  5  6  1  0
  1  7  1  0
  6  7  1  0
  7  8  1  0
  8  9  1  0
  5 10  1  0
 10 11  1  0
 11 12  2  0
 11 13  1  0
 13 14  1  0
  9 15  1  0
 15 16  2  0
 15 17  1  0
 15 18  1  0
  1 19  1  6
  2 20  1  0
  3 21  1  6
  4 22  1  0
  5 23  1  1
  7 24  1  1
  8 25  1  0
  8 26  1  0
 10 27  1  0
 13 28  1  0
 13 29  1  0
 14 30  1  0
 14 31  1  0
M  CHG  2  17  -1  18  -1
M  END
