7CIJ_G0C_B_601
     RDKit          3D

 40 40  0  0  0  0  0  0  0  0999 V2000
    0.7326   -0.3787   -1.5602 C   0  0  0  0  0  0  0  0  0  0  0  0
    1.7678   -0.6244   -0.6193 C   0  0  0  0  0  0  0  0  0  0  0  0
    3.0724   -0.8291   -1.0962 C   0  0  0  0  0  0  0  0  0  0  0  0
    3.3506   -0.7196   -2.4181 N   0  0  0  0  0  0  0  0  0  0  0  0
    1.0602   -0.2678   -2.9323 C   0  0  0  0  0  0  0  0  0  0  0  0
    1.1035    1.8735    2.7161 O   0  0  0  0  0  0  0  0  0  0  0  0
    2.4572    1.5085    1.7663 P   0  0  0  0  0  5  0  0  0  0  0  0
    2.2937    2.2252    0.2404 O   0  0  0  0  0  0  0  0  0  0  0  0
    3.6967    2.0529    2.4392 O   0  0  0  0  0  0  0  0  0  0  0  0
    2.6115   -0.1859    1.6133 O   0  0  0  0  0  0  0  0  0  0  0  0
    1.5164   -0.6921    0.8776 C   0  0  0  0  0  0  0  0  0  0  0  0
    2.3945   -0.4299   -3.3364 C   0  0  0  0  0  0  0  0  0  0  0  0
    2.7768   -0.3294   -4.7815 C   0  0  0  0  0  0  0  0  0  0  0  0
    0.0881   -0.0254   -3.9094 O   0  0  0  0  0  0  0  0  0  0  0  0
   -0.6763   -0.2357   -1.1369 C   0  0  0  0  0  0  0  0  0  0  0  0
   -1.2204   -1.1126   -0.3520 N   0  0  0  0  0  0  0  0  0  0  0  0
   -2.6118   -1.0220    0.0706 C   0  0  0  0  0  0  0  0  0  0  0  0
   -2.9319   -2.1793    1.0192 C   0  0  0  0  0  0  0  0  0  0  0  0
   -4.3957   -2.1680    1.4756 C   0  0  0  0  0  0  0  0  0  0  0  0
   -4.7600   -0.7465    2.5719 S   0  0  0  0  0  0  0  0  0  0  0  0
   -4.2401   -1.5566    4.1197 C   0  0  0  0  0  0  0  0  0  0  0  0
    3.8797   -1.0585   -0.4129 H   0  0  0  0  0  0  0  0  0  0  0  0
    1.0697    2.8630    2.7411 H   0  0  0  0  0  0  0  0  0  0  0  0
    2.1837    3.1921    0.4236 H   0  0  0  0  0  0  0  0  0  0  0  0
    1.3956   -1.7628    1.1441 H   0  0  0  0  0  0  0  0  0  0  0  0
    0.5652   -0.2001    1.1770 H   0  0  0  0  0  0  0  0  0  0  0  0
    3.8774   -0.4186   -4.9020 H   0  0  0  0  0  0  0  0  0  0  0  0
    2.2887   -1.1447   -5.3558 H   0  0  0  0  0  0  0  0  0  0  0  0
    2.4561    0.6520   -5.1902 H   0  0  0  0  0  0  0  0  0  0  0  0
   -0.9008    0.0456   -3.7097 H   0  0  0  0  0  0  0  0  0  0  0  0
   -1.2704    0.5814   -1.5300 H   0  0  0  0  0  0  0  0  0  0  0  0
   -3.2733   -1.0730   -0.8222 H   0  0  0  0  0  0  0  0  0  0  0  0
   -2.7747   -0.0515    0.5880 H   0  0  0  0  0  0  0  0  0  0  0  0
   -2.2570   -2.1374    1.9002 H   0  0  0  0  0  0  0  0  0  0  0  0
   -2.7369   -3.1376    0.4902 H   0  0  0  0  0  0  0  0  0  0  0  0
   -5.0609   -2.1074    0.5881 H   0  0  0  0  0  0  0  0  0  0  0  0
   -4.6301   -3.1224    1.9933 H   0  0  0  0  0  0  0  0  0  0  0  0
   -3.1719   -1.8492    4.0668 H   0  0  0  0  0  0  0  0  0  0  0  0
   -4.8666   -2.4522    4.3116 H   0  0  0  0  0  0  0  0  0  0  0  0
   -4.3716   -0.8443    4.9598 H   0  0  0  0  0  0  0  0  0  0  0  0
  1  2  2  0
  2  3  1  0
  3  4  2  0
  1  5  1  0
  6  7  1  0
  7  8  1  0
  7  9  2  0
  7 10  1  0
  2 11  1  0
 10 11  1  0
  5 12  2  0
  4 12  1  0
 12 13  1  0
  5 14  1  0
  1 15  1  0
 15 16  2  0
 16 17  1  0
 17 18  1  0
 18 19  1  0
 19 20  1  0
 20 21  1  0
  3 22  1  0
  6 23  1  0
  8 24  1  0
 11 25  1  0
 11 26  1  0
 13 27  1  0
 13 28  1  0
 13 29  1  0
 14 30  1  0
 15 31  1  0
 17 32  1  0
 17 33  1  0
 18 34  1  0
 18 35  1  0
 19 36  1  0
 19 37  1  0
 21 38  1  0
 21 39  1  0
 21 40  1  0
M  END
