7CIJ_G0C_B_601
     RDKit          3D

 21 21  0  0  0  0  0  0  0  0999 V2000
   25.5590  -12.1840   57.7660 C   0  0  0  0  0  0  0  0  0  0  0  0
   24.8240  -11.2730   56.9710 C   0  0  0  0  0  0  0  0  0  0  0  0
   23.8860  -11.7430   56.0480 C   0  0  0  0  0  0  0  0  0  0  0  0
   23.6540  -13.0590   55.9060 N   0  0  0  0  0  0  0  0  0  0  0  0
   25.2880  -13.5680   57.5580 C   0  0  0  0  0  0  0  0  0  0  0  0
   28.2750   -8.2820   56.1600 O   0  0  0  0  0  0  0  0  0  0  0  0
   27.0530   -8.1330   56.9150 P   0  0  0  0  0  0  0  0  0  0  0  0
   26.1530   -6.9950   56.5550 O   0  0  0  0  0  0  0  0  0  0  0  0
   27.1670   -8.2820   58.3730 O   0  0  0  0  0  0  0  0  0  0  0  0
   26.2730   -9.4840   56.4420 O   0  0  0  0  0  0  0  0  0  0  0  0
   25.0120   -9.7530   57.0170 C   0  0  0  0  0  0  0  0  0  0  0  0
   24.3250  -13.9850   56.6500 C   0  0  0  0  0  0  0  0  0  0  0  0
   23.9930  -15.4300   56.3730 C   0  0  0  0  0  0  0  0  0  0  0  0
   25.9270  -14.5320   58.2690 O   0  0  0  0  0  0  0  0  0  0  0  0
   26.5410  -11.7540   58.6780 C   0  0  0  0  0  0  0  0  0  0  0  0
   27.0100  -12.5940   59.5730 N   0  0  0  0  0  0  0  0  0  0  0  0
   28.0910  -12.2800   60.5140 C   0  0  0  0  0  0  0  0  0  0  0  0
   28.8850  -10.9850   60.4330 C   0  0  0  0  0  0  0  0  0  0  0  0
   30.1030  -10.8840   61.3090 C   0  0  0  0  0  0  0  0  0  0  0  0
   31.3220  -11.9860   60.4700 S   0  0  0  0  0  0  0  0  0  0  0  0
   31.8010  -11.0570   59.0230 C   0  0  0  0  0  0  0  0  0  0  0  0
  1  2  2  0
  2  3  1  0
  3  4  2  0
  1  5  1  0
  6  7  1  0
  7  8  1  0
  7  9  2  0
  7 10  1  0
  2 11  1  0
 10 11  1  0
  5 12  2  0
  4 12  1  0
 12 13  1  0
  5 14  1  0
  1 15  1  0
 15 16  2  0
 16 17  1  0
 17 18  1  0
 18 19  1  0
 19 20  1  0
 20 21  1  0
M  END
$$$$
