6YRV_PJ8_AAA_802
     RDKit          3D

 17 16  0  0  0  0  0  0  0  0999 V2000
   14.7537   25.5944   16.6065 C   0  0  0  0  0  0  0  0  0  0  0  0
   14.7570   26.8444   15.7864 C   0  0  0  0  0  0  0  0  0  0  0  0
   13.6267   27.7840   16.1839 C   0  0  0  0  0  0  0  0  0  0  0  0
   13.6595   29.0449   15.3845 C   0  0  0  0  0  0  0  0  0  0  0  0
   12.5475   29.9590   15.8128 C   0  0  0  0  0  0  0  0  0  0  0  0
   11.2362   29.2842   16.0310 C   0  0  0  0  0  0  0  0  0  0  0  0
   10.1510   30.2301   16.4672 C   0  0  0  0  0  0  0  0  0  0  0  0
    9.4510   30.9230   15.3535 C   0  0  0  0  0  0  0  0  0  0  0  0
    8.2702   31.7244   15.7435 C   0  0  0  0  0  0  0  0  0  0  0  0
    7.6246   32.5004   14.6462 C   0  0  0  0  0  0  0  0  0  0  0  0
    6.6644   33.5448   15.0923 C   0  0  0  0  0  0  0  0  0  0  0  0
    6.0528   34.3148   13.9395 C   0  0  0  0  0  0  0  0  0  0  0  0
    5.0424   35.3057   14.4431 C   0  0  0  0  0  0  0  0  0  0  0  0
    3.9054   34.6851   15.1829 C   0  0  0  0  0  0  0  0  0  0  0  0
    2.9427   35.6868   15.7553 C   0  0  0  0  0  0  0  0  0  0  0  0
    1.7735   35.0327   16.4531 C   0  0  0  0  0  0  0  0  0  0  0  0
    0.8194   36.0705   17.0116 C   0  0  0  0  0  0  0  0  0  0  0  0
  1  2  1  0
  2  3  1  0
  3  4  1  0
  4  5  1  0
  5  6  1  0
  6  7  1  0
  7  8  1  0
  8  9  1  0
  9 10  1  0
 10 11  1  0
 11 12  1  0
 12 13  1  0
 13 14  1  0
 14 15  1  0
 15 16  1  0
 16 17  1  0
M  END
$$$$
