
     RDKit          3D

 29 30  0  0  0  0  0  0  0  0999 V2000
   36.0356    7.0735   11.1374 C   0  0  0  0  0  0  0  0  0  0  0  0
   36.2598    5.9049   11.8657 C   0  0  0  0  0  0  0  0  0  0  0  0
   36.7224    5.9894   13.1760 C   0  0  0  0  0  0  0  0  0  0  0  0
   36.9346    4.8652   13.8720 F   0  0  0  0  0  0  0  0  0  0  0  0
   36.9757    7.2212   13.7729 C   0  0  0  0  0  0  0  0  0  0  0  0
   36.7550    8.3954   13.0522 C   0  0  0  0  0  0  0  0  0  0  0  0
   36.2676    8.3150   11.7427 C   0  0  0  0  0  0  0  0  0  0  0  0
   35.9962    9.7983   10.8020 S   0  0  0  0  0  6  0  0  0  0  0  0
   35.7386   10.8790   11.7343 O   0  0  0  0  0  0  0  0  0  0  0  0
   37.1122    9.8957    9.8778 O   0  0  0  0  0  0  0  0  0  0  0  0
   34.5420    9.5205    9.8348 C   0  0  0  0  0  0  0  0  0  0  0  0
   33.2744   10.2579   10.2612 C   0  0  1  0  0  0  0  0  0  0  0  0
   32.1312    9.4124   10.0552 O   0  0  0  0  0  0  0  0  0  0  0  0
   33.2707   10.7809   11.6964 C   0  0  0  0  0  0  0  0  0  0  0  0
   33.1392   11.4575    9.2833 C   0  0  0  0  0  0  0  0  0  0  0  0
   32.5854   12.5013    9.6081 O   0  0  0  0  0  0  0  0  0  0  0  0
   33.7627   11.2026    8.0694 N   0  0  0  0  0  0  0  0  0  0  0  0
   33.2791   11.4656    6.7754 C   0  0  0  0  0  0  0  0  0  0  0  0
   32.0020   12.0315    6.6722 C   0  0  0  0  0  0  0  0  0  0  0  0
   33.9882   11.1897    5.6080 C   0  0  0  0  0  0  0  0  0  0  0  0
   33.4341   11.4790    4.3559 C   0  0  0  0  0  0  0  0  0  0  0  0
   32.1592   12.0477    4.2524 C   0  0  0  0  0  0  0  0  0  0  0  0
   31.6327   12.3279    2.9453 C   0  0  0  0  0  0  0  0  0  0  0  0
   31.2084   12.5542    1.8902 N   0  0  0  0  0  0  0  0  0  0  0  0
   31.4287   12.3292    5.4182 C   0  0  0  0  0  0  0  0  0  0  0  0
   30.0512   12.9409    5.3419 C   0  0  0  0  0  0  0  0  0  0  0  0
   30.0586   14.1734    4.7701 F   0  0  0  0  0  0  0  0  0  0  0  0
   29.4739   13.0799    6.5640 F   0  0  0  0  0  0  0  0  0  0  0  0
   29.1786   12.1974    4.6042 F   0  0  0  0  0  0  0  0  0  0  0  0
  1  2  4  0
  2  3  4  0
  3  4  1  0
  3  5  4  0
  5  6  4  0
  1  7  4  0
  6  7  4  0
  7  8  1  0
  8  9  2  0
  8 10  2  0
  8 11  1  0
 11 12  1  0
 12 13  1  0
 12 14  1  1
 12 15  1  0
 15 16  2  0
 15 17  1  0
 17 18  1  0
 18 19  4  0
 18 20  4  0
 20 21  4  0
 21 22  4  0
 22 23  1  0
 23 24  3  0
 19 25  4  0
 22 25  4  0
 25 26  1  0
 26 27  1  0
 26 28  1  0
 26 29  1  0
M  END
