1SG0_STL_B_502
     RDKit          3D

 29 30  0  0  0  0  0  0  0  0999 V2000
   34.6146   17.2646   15.4028 C   0  0  0  0  0  0  0  0  0  0  0  0
   34.9000   17.1084   14.0439 C   0  0  0  0  0  0  0  0  0  0  0  0
   34.0139   16.4180   13.2132 C   0  0  0  0  0  0  0  0  0  0  0  0
   32.8382   15.8728   13.7470 C   0  0  0  0  0  0  0  0  0  0  0  0
   32.5450   16.0034   15.1151 C   0  0  0  0  0  0  0  0  0  0  0  0
   33.4395   16.7180   15.9381 C   0  0  0  0  0  0  0  0  0  0  0  0
   31.2824   15.4163   15.6286 C   0  0  0  0  0  0  0  0  0  0  0  0
   31.0437   15.1883   16.9300 C   0  0  0  0  0  0  0  0  0  0  0  0
   29.7816   14.6010   17.4448 C   0  0  0  0  0  0  0  0  0  0  0  0
   28.8613   13.9286   16.6143 C   0  0  0  0  0  0  0  0  0  0  0  0
   27.6914   13.3824   17.1519 C   0  0  0  0  0  0  0  0  0  0  0  0
   27.4269   13.4887   18.5198 C   0  0  0  0  0  0  0  0  0  0  0  0
   28.3422   14.1409   19.3546 C   0  0  0  0  0  0  0  0  0  0  0  0
   29.5134   14.6875   18.8217 C   0  0  0  0  0  0  0  0  0  0  0  0
   26.2563   12.9405   19.0393 O   0  0  0  0  0  0  0  0  0  0  0  0
   34.3097   16.2791   11.8589 O   0  0  0  0  0  0  0  0  0  0  0  0
   35.5028   17.9688   16.2128 O   0  0  0  0  0  0  0  0  0  0  0  0
   35.8080   17.5305   13.6315 H   0  0  0  0  0  0  0  0  0  0  0  0
   32.1580   15.3384   13.0945 H   0  0  0  0  0  0  0  0  0  0  0  0
   33.2254   16.8807   16.9851 H   0  0  0  0  0  0  0  0  0  0  0  0
   30.5363   15.1499   14.8926 H   0  0  0  0  0  0  0  0  0  0  0  0
   31.7910   15.4533   17.6653 H   0  0  0  0  0  0  0  0  0  0  0  0
   29.0464   13.7966   15.5577 H   0  0  0  0  0  0  0  0  0  0  0  0
   26.9923   12.8683   16.5043 H   0  0  0  0  0  0  0  0  0  0  0  0
   28.1483   14.2240   20.4165 H   0  0  0  0  0  0  0  0  0  0  0  0
   30.2080   15.1880   19.4856 H   0  0  0  0  0  0  0  0  0  0  0  0
   26.0139   13.0404   20.0182 H   0  0  0  0  0  0  0  0  0  0  0  0
   33.6468   15.8694   11.2112 H   0  0  0  0  0  0  0  0  0  0  0  0
   35.3087   18.1347   17.1935 H   0  0  0  0  0  0  0  0  0  0  0  0
  1  2  2  0
  2  3  1  0
  3  4  2  0
  4  5  1  0
  1  6  1  0
  5  6  2  0
  5  7  1  0
  7  8  2  0
  8  9  1  0
  9 10  2  0
 10 11  1  0
 11 12  2  0
 12 13  1  0
  9 14  1  0
 13 14  2  0
 12 15  1  0
  3 16  1  0
  1 17  1  0
  2 18  1  0
  4 19  1  0
  6 20  1  0
  7 21  1  0
  8 22  1  0
 10 23  1  0
 11 24  1  0
 13 25  1  0
 14 26  1  0
 15 27  1  0
 16 28  1  0
 17 29  1  0
M  END
