7MGT_ZD4_A_403
     RDKit          3D

 28 30  0  0  0  0  0  0  0  0999 V2000
   45.5249   33.8551   10.7190 C   0  0  2  0  0  0  0  0  0  0  0  0
   45.2648   32.4183    6.4907 C   0  0  0  0  0  0  0  0  0  0  0  0
   44.8989   33.0148   11.8182 C   0  0  1  0  0  0  0  0  0  0  0  0
   44.2209   34.1306   12.6110 C   0  0  1  0  0  0  0  0  0  0  0  0
   46.2115   32.7491    8.6133 C   0  0  0  0  0  0  0  0  0  0  0  0
   45.1465   35.2975   12.3244 C   0  0  1  0  0  0  0  0  0  0  0  0
   47.3224   32.0485    8.1549 C   0  0  0  0  0  0  0  0  0  0  0  0
   45.7063   35.7670   13.6672 C   0  0  0  0  0  0  0  0  0  0  0  0
   47.4170   31.5357    6.8887 C   0  0  0  0  0  0  0  0  0  0  0  0
   47.6354   32.6675   10.2368 C   0  0  0  0  0  0  0  0  0  0  0  0
   46.3608   31.7326    6.0535 N   0  0  0  0  0  0  0  0  0  0  0  0
   45.1941   32.9132    7.7396 N   0  0  0  0  0  0  0  0  0  0  0  0
   48.5609   30.8196    6.4313 N   0  0  0  0  0  0  0  0  0  0  0  0
   48.1919   32.0137    9.1873 N   0  0  0  0  0  0  0  0  0  0  0  0
   46.4011   33.1240    9.8740 N   0  0  0  0  0  0  0  0  0  0  0  0
   46.9917   38.1501   15.3757 O   0  0  0  0  0  0  0  0  0  0  0  0
   45.8787   37.1405   18.2849 O   0  0  0  0  0  0  0  0  0  0  0  0
   43.9541   32.1265   11.3005 O   0  0  0  0  0  0  0  0  0  0  0  0
   49.2699   36.9150   15.0290 O   0  0  0  0  0  0  0  0  0  0  0  0
   48.4281   37.8242   17.5105 O   0  0  0  0  0  0  0  0  0  0  0  0
   42.9672   34.3031   11.9897 O   0  0  0  0  0  0  0  0  0  0  0  0
   47.1760   35.7200   16.2912 O   0  0  0  0  0  0  0  0  0  0  0  0
   47.9004   35.6465   18.8425 O   0  0  0  0  0  0  0  0  0  0  0  0
   46.1306   34.8469   11.4851 O   0  0  0  0  0  0  0  0  0  0  0  0
   46.9687   36.3041   13.5668 O   0  0  0  0  0  0  0  0  0  0  0  0
   47.5864   36.8024   15.0556 P   0  0  1  0  0  0  0  0  0  0  0  0
   47.3561   36.5414   17.7510 P   0  0  2  0  0  0  0  0  0  0  0  0
   43.9077   32.6708    5.4165 Cl  0  0  0  0  0  0  0  0  0  0  0  0
  1  3  1  0
  3  4  1  0
  4  6  1  0
  5  7  1  0
  6  8  1  1
  7  9  2  0
  2 11  2  0
  9 11  1  0
  2 12  1  0
  5 12  2  0
  9 13  1  0
  7 14  1  0
 10 14  2  0
  5 15  1  0
  1 15  1  1
 10 15  1  0
  3 18  1  6
  4 21  1  6
  6 24  1  0
  1 24  1  0
  8 25  1  0
 16 26  2  0
 22 26  1  0
 26 19  1  6
 25 26  1  0
 23 27  2  0
 27 17  1  1
 22 27  1  0
 20 27  1  0
  2 28  1  0
M  END
$$$$
