6XM9_V55_A_501
     RDKit          3D

 19 19  0  0  0  0  0  0  0  0999 V2000
    0.1450   -0.5587   -1.6204 C   0  0  0  0  0  0  0  0  0  0  0  0
   -0.3107    0.3954   -0.6937 C   0  0  0  0  0  0  0  0  0  0  0  0
    0.0434    0.2993    0.6677 C   0  0  0  0  0  0  0  0  0  0  0  0
    0.8604   -0.7650    1.0914 C   0  0  0  0  0  0  0  0  0  0  0  0
    1.3118   -1.7120    0.1674 C   0  0  0  0  0  0  0  0  0  0  0  0
   -0.9463    0.4624   -3.4781 O   0  0  0  0  0  0  0  0  0  0  0  0
    0.9578   -1.6113   -1.1790 C   0  0  0  0  0  0  0  0  0  0  0  0
   -0.2175   -0.4706   -3.0474 C   0  0  0  0  0  0  0  0  0  0  0  0
   -1.2231    2.3567    1.3263 C   0  0  0  0  0  0  0  0  0  0  0  0
   -0.3951    1.2355    1.6180 O   0  0  0  0  0  0  0  0  0  0  0  0
    1.2346   -0.8982    2.4285 O   0  0  0  0  0  0  0  0  0  0  0  0
   -0.9380    1.2074   -1.0353 H   0  0  0  0  0  0  0  0  0  0  0  0
    1.9404   -2.5303    0.4954 H   0  0  0  0  0  0  0  0  0  0  0  0
    1.3193   -2.3567   -1.8771 H   0  0  0  0  0  0  0  0  0  0  0  0
    0.1441   -1.2159   -3.7445 H   0  0  0  0  0  0  0  0  0  0  0  0
   -0.7155    3.0283    0.6020 H   0  0  0  0  0  0  0  0  0  0  0  0
   -1.4108    2.9216    2.2623 H   0  0  0  0  0  0  0  0  0  0  0  0
   -2.1970    2.0159    0.9158 H   0  0  0  0  0  0  0  0  0  0  0  0
    0.9371   -0.2421    3.1405 H   0  0  0  0  0  0  0  0  0  0  0  0
  1  2  2  0
  2  3  1  0
  3  4  2  0
  4  5  1  0
  1  7  1  0
  5  7  2  0
  1  8  1  0
  6  8  2  0
  3 10  1  0
  9 10  1  0
  4 11  1  0
  2 12  1  0
  5 13  1  0
  7 14  1  0
  8 15  1  0
  9 16  1  0
  9 17  1  0
  9 18  1  0
 11 19  1  0
M  END
