
     RDKit          3D

 56 59  0  0  0  0  0  0  0  0999 V2000
  -22.7322   34.3820  -22.1515 N   0  0  0  0  0  0  0  0  0  0  0  0
  -23.6709   25.9524  -21.1600 O   0  0  0  0  0  0  0  0  0  0  0  0
  -22.7331   26.0782  -20.0015 P   0  0  1  0  0  5  0  0  0  0  0  0
  -13.5189   25.3059  -13.6628 C   0  0  0  0  0  0  0  0  0  0  0  0
  -24.6321   30.3209  -19.5257 C   0  0  1  0  0  0  0  0  0  0  0  0
  -13.6943   27.0493  -13.4778 S   0  0  0  0  0  0  0  0  0  0  0  0
  -23.6500   34.3215  -21.1613 C   0  0  0  0  0  0  0  0  0  0  0  0
  -22.9867   24.9315  -18.9171 O   0  0  0  0  0  0  0  0  0  0  0  0
  -20.5189   26.4202  -21.7023 P   0  0  1  0  0  5  0  0  0  0  0  0
  -14.4514   24.4040  -12.9387 C   0  0  0  0  0  0  0  0  0  0  0  0
  -25.5501   29.1934  -19.9893 C   0  0  2  0  0  0  0  0  0  0  0  0
  -26.6952   29.6740  -20.6995 O   0  0  0  0  0  0  0  0  0  0  0  0
  -12.9130   27.5221  -15.0538 C   0  0  0  0  0  0  0  0  0  0  0  0
  -24.1002   33.2385  -20.4928 N   0  0  0  0  0  0  0  0  0  0  0  0
  -21.1838   26.0051  -20.3260 O   0  0  0  0  0  0  0  0  0  0  0  0
  -15.5080   25.0019  -12.2357 C   0  0  0  0  0  0  0  0  0  0  0  0
  -25.8972   28.5386  -18.6545 C   0  0  2  0  0  0  0  0  0  0  0  0
  -26.9324   29.3198  -18.0451 O   0  0  0  0  0  0  0  0  0  0  0  0
  -28.3798   28.6733  -17.8604 P   0  0  0  0  0  5  0  0  0  0  0  0
  -13.8052   27.1415  -16.2376 C   0  0  0  0  0  0  0  0  0  0  0  0
  -23.5262   32.1091  -20.9478 C   0  0  0  0  0  0  0  0  0  0  0  0
  -20.7021   25.1292  -22.6278 O   0  0  0  0  0  0  0  0  0  0  0  0
  -16.4009   24.2180  -11.4986 C   0  0  0  0  0  0  0  0  0  0  0  0
  -24.5852   28.6619  -17.8757 C   0  0  2  0  0  0  0  0  0  0  0  0
  -23.8910   29.8267  -18.3914 O   0  0  0  0  0  0  0  0  0  0  0  0
  -13.0181   26.6843  -17.3799 N   0  0  0  0  0  0  0  0  0  0  0  0
  -12.6254   24.8449  -14.3718 O   0  0  0  0  0  0  0  0  0  0  0  0
  -21.0094   27.6698  -22.3499 O   0  0  0  0  0  0  0  0  0  0  0  0
  -16.2447   22.8330  -11.4554 C   0  0  0  0  0  0  0  0  0  0  0  0
  -23.6928   27.4189  -17.9918 C   0  0  0  0  0  0  0  0  0  0  0  0
  -22.9213   27.4470  -19.1817 O   0  0  0  0  0  0  0  0  0  0  0  0
  -22.5774   32.0169  -21.9559 C   0  0  0  0  0  0  0  0  0  0  0  0
  -12.4819   27.5857  -18.2687 C   0  0  0  0  0  0  0  0  0  0  0  0
  -12.2140   28.7481  -17.9693 O   0  0  0  0  0  0  0  0  0  0  0  0
  -22.1865   33.2200  -22.5732 C   0  0  0  0  0  0  0  0  0  0  0  0
  -21.2418   33.2744  -23.5938 N   0  0  0  0  0  0  0  0  0  0  0  0
  -18.9391   26.3674  -21.4197 O   0  0  0  0  0  0  0  0  0  0  0  0
  -15.1902   22.2322  -12.1398 C   0  0  0  0  0  0  0  0  0  0  0  0
  -12.2938   27.0396  -19.6751 C   0  0  0  0  0  0  0  0  0  0  0  0
  -22.1763   30.7122  -22.1473 N   0  0  0  0  0  0  0  0  0  0  0  0
  -28.1152   27.5297  -16.7874 O   0  0  0  0  0  0  0  0  0  0  0  0
  -14.2907   23.0104  -12.8773 C   0  0  0  0  0  0  0  0  0  0  0  0
  -12.5459   28.1290  -20.7195 C   0  0  0  0  0  0  0  0  0  0  0  0
  -22.8844   30.0220  -21.2791 C   0  0  0  0  0  0  0  0  0  0  0  0
  -29.4859   29.5920  -17.4940 O   0  0  0  0  0  0  0  0  0  0  0  0
  -13.9618   28.2596  -21.0376 N   0  0  0  0  0  0  0  0  0  0  0  0
  -23.7313   30.8183  -20.5471 N   0  0  0  0  0  0  0  0  0  0  0  0
  -28.6207   27.8066  -19.1767 O   0  0  0  0  0  0  0  0  0  0  0  0
  -14.7126   27.2477  -21.5769 C   0  0  0  0  0  0  0  0  0  0  0  0
  -14.2066   26.2291  -22.0586 O   0  0  0  0  0  0  0  0  0  0  0  0
  -16.2540   27.3782  -21.4615 C   0  0  2  0  0  0  0  0  0  0  0  0
  -16.5718   28.7615  -21.7007 O   0  0  0  0  0  0  0  0  0  0  0  0
  -16.9262   26.9313  -20.1310 C   0  0  2  0  0  0  0  0  0  0  0  0
  -18.4712   26.9954  -20.2363 C   0  0  0  0  0  0  0  0  0  0  0  0
  -16.4696   27.8704  -18.9810 C   0  0  0  0  0  0  0  0  0  0  0  0
  -16.4917   25.5020  -19.7541 C   0  0  0  0  0  0  0  0  0  0  0  0
  2  3  2  0
  4  6  1  0
  1  7  4  0
  3  8  1  1
  4 10  1  0
  5 11  1  0
 11 12  1  1
  6 13  1  0
  7 14  4  0
  3 15  1  0
  9 15  1  0
 10 16  4  0
 11 17  1  0
 17 18  1  1
 18 19  1  0
 13 20  1  0
 14 21  4  0
  9 22  1  6
 16 23  4  0
 17 24  1  0
  5 25  1  0
 24 25  1  0
 20 26  1  0
  4 27  2  0
  9 28  2  0
 23 29  4  0
 24 30  1  6
  3 31  1  0
 30 31  1  0
 21 32  4  0
 26 33  1  0
 33 34  2  0
  1 35  4  0
 32 35  4  0
 35 36  1  0
  9 37  1  0
 29 38  4  0
 33 39  1  0
 32 40  4  0
 19 41  1  0
 10 42  4  0
 38 42  4  0
 39 43  1  0
 40 44  4  0
 19 45  2  0
 43 46  1  0
  5 47  1  6
 21 47  4  0
 44 47  4  0
 19 48  1  0
 46 49  1  0
 49 50  2  0
 49 51  1  0
 51 52  1  1
 51 53  1  0
 37 54  1  0
 53 54  1  0
 53 55  1  1
 53 56  1  0
M  END
