7P4J_5JK_A_904
     RDKit          3D

 29 32  0  0  0  0  0  0  0  0999 V2000
    3.0331   22.4828   -4.4665 C   0  0  0  0  0  0  0  0  0  0  0  0
    2.9767   23.0954   -3.0181 C   0  0  2  0  0  0  0  0  0  0  0  0
    2.0998   22.1898   -2.2616 C   0  0  0  0  0  0  0  0  0  0  0  0
    0.5910   22.1492   -2.8571 C   0  0  0  0  0  0  0  0  0  0  0  0
   -0.0121   23.5500   -2.9467 C   0  0  2  0  0  0  0  0  0  0  0  0
   -1.5047   23.5135   -3.5467 C   0  0  1  0  0  0  0  0  0  0  0  0
   -1.4700   22.7574   -4.9179 C   0  0  0  0  0  0  0  0  0  0  0  0
   -2.3561   22.6514   -2.5506 C   0  0  0  0  0  0  0  0  0  0  0  0
   -3.8472   22.8252   -2.7954 C   0  0  0  0  0  0  0  0  0  0  0  0
   -4.1700   24.2743   -2.6669 C   0  0  2  0  0  0  0  0  0  0  0  0
   -5.5724   24.4643   -2.7183 O   0  0  0  0  0  0  0  0  0  0  0  0
   -3.5172   25.1217   -3.7686 C   0  0  0  0  0  0  0  0  0  0  0  0
   -2.0065   24.8955   -3.7615 C   0  0  0  0  0  0  0  0  0  0  0  0
   -1.0457   25.9827   -4.3641 C   0  0  0  0  0  0  0  0  0  0  0  0
    0.3144   25.9931   -3.7321 C   0  0  1  0  0  0  0  0  0  0  0  0
    0.1666   26.3773   -2.4270 O   0  0  0  0  0  0  0  0  0  0  0  0
    0.9588   24.5067   -3.7644 C   0  0  1  0  0  0  0  0  0  0  0  0
    2.3276   24.5237   -3.1828 C   0  0  2  0  0  0  0  0  0  0  0  0
    3.5190   25.4316   -3.8828 C   0  0  0  0  0  0  0  0  0  0  0  0
    4.9379   24.7766   -3.1905 C   0  0  0  0  0  0  0  0  0  0  0  0
    4.5363   23.3904   -2.5650 C   0  0  2  0  0  0  0  0  0  0  0  0
    5.5555   22.4703   -2.9716 C   0  0  2  0  0  0  0  0  0  0  0  0
    5.3037   21.0159   -2.4763 C   0  0  0  0  0  0  0  0  0  0  0  0
    6.8223   23.0253   -2.1917 C   0  0  0  0  0  0  0  0  0  0  0  0
    8.0128   22.0289   -2.1064 C   0  0  0  0  0  0  0  0  0  0  0  0
    9.2238   22.8912   -1.5640 C   0  0  0  0  0  0  0  0  0  0  0  0
   10.5803   22.1156   -1.6629 C   0  0  2  0  0  0  0  0  0  0  0  0
   11.0816   22.1740   -3.1403 C   0  0  0  0  0  0  0  0  0  0  0  0
   10.4062   20.6401   -1.2068 C   0  0  0  0  0  0  0  0  0  0  0  0
  2  1  1  6
  2  3  1  0
  3  4  1  0
  5  4  1  6
  5  6  1  0
  6  7  1  6
  6  8  1  0
  8  9  1  0
  9 10  1  0
 10 11  1  6
 10 12  1  0
 12 13  1  0
  6 13  1  0
 13 14  2  0
 14 15  1  0
 15 16  1  1
 17 15  1  1
  5 17  1  0
 17 18  1  0
  2 18  1  0
 18 19  1  6
 19 20  1  0
 21 20  1  6
  2 21  1  0
 21 22  1  0
 22 23  1  1
 22 24  1  0
 24 25  1  0
 25 26  1  0
 26 27  1  0
 27 28  1  6
 27 29  1  0
M  END
