1N2J_PAF_A_1001
     RDKit          3D

 10  9  0  0  0  0  0  0  0  0999 V2000
   19.0356   32.1594   78.4549 O   0  0  0  0  0  0  0  0  0  0  0  0
   18.7190   30.8298   78.6559 C   0  0  0  0  0  0  0  0  0  0  0  0
   18.2434   30.5055   79.7906 O   0  0  0  0  0  0  0  0  0  0  0  0
   18.9360   29.8499   77.5772 C   0  0  2  0  0  0  0  0  0  0  0  0
   18.1528   28.7131   77.7049 O   0  0  0  0  0  0  0  0  0  0  0  0
   20.3960   29.4748   77.4446 C   0  0  1  0  0  0  0  0  0  0  0  0
   20.6001   28.4797   76.3395 C   0  0  0  0  0  0  0  0  0  0  0  0
   21.1885   30.7121   77.0919 C   0  0  0  0  0  0  0  0  0  0  0  0
   20.8400   28.9343   78.8102 C   0  0  0  0  0  0  0  0  0  0  0  0
   20.0516   27.7981   79.0149 O   0  0  0  0  0  0  0  0  0  0  0  0
  1  2  1  0
  2  3  2  0
  2  4  1  0
  4  5  1  1
  4  6  1  0
  6  7  1  6
  6  8  1  0
  6  9  1  0
  9 10  1  0
M  CHG  1   1  -1
M  END
$$$$
