1N2J_PAF_A_1001
     RDKit          3D

 10  9  0  0  0  0  0  0  0  0999 V2000
   31.1419    5.3151   60.8955 O   0  0  0  0  0  0  0  0  0  0  0  0
   31.8516    5.5283   62.0613 C   0  0  0  0  0  0  0  0  0  0  0  0
   33.0306    5.0542   62.1250 O   0  0  0  0  0  0  0  0  0  0  0  0
   31.2380    6.2801   63.1700 C   0  0  2  0  0  0  0  0  0  0  0  0
   29.8593    6.3813   63.0656 O   0  0  0  0  0  0  0  0  0  0  0  0
   31.8589    7.6507   63.3305 C   0  0  1  0  0  0  0  0  0  0  0  0
   31.6184    8.4986   62.1153 C   0  0  0  0  0  0  0  0  0  0  0  0
   31.2099    8.3470   64.5040 C   0  0  0  0  0  0  0  0  0  0  0  0
   33.3521    7.4309   63.6063 C   0  0  0  0  0  0  0  0  0  0  0  0
   33.8225    8.6788   64.0253 O   0  0  0  0  0  0  0  0  0  0  0  0
  1  2  1  0
  2  3  2  0
  2  4  1  0
  4  5  1  6
  4  6  1  0
  6  7  1  6
  6  8  1  0
  6  9  1  0
  9 10  1  0
M  CHG  1   1  -1
M  END
$$$$
