1N2J_PAF_A_1001
     RDKit          3D

 10  9  0  0  0  0  0  0  0  0999 V2000
   36.9311   34.7183   44.3856 O   0  0  0  0  0  0  0  0  0  0  0  0
   36.1584   33.5733   44.3861 C   0  0  0  0  0  0  0  0  0  0  0  0
   36.6520   32.5326   43.8455 O   0  0  0  0  0  0  0  0  0  0  0  0
   34.8180   33.5896   44.9976 C   0  0  2  0  0  0  0  0  0  0  0  0
   34.2761   34.8620   45.0943 O   0  0  0  0  0  0  0  0  0  0  0  0
   34.8081   32.9059   46.3475 C   0  0  1  0  0  0  0  0  0  0  0  0
   35.3733   31.5183   46.2546 C   0  0  0  0  0  0  0  0  0  0  0  0
   35.6836   33.6887   47.2983 C   0  0  0  0  0  0  0  0  0  0  0  0
   33.3544   32.9156   46.8381 C   0  0  0  0  0  0  0  0  0  0  0  0
   32.6078   32.4717   45.7428 O   0  0  0  0  0  0  0  0  0  0  0  0
  1  2  1  0
  2  3  2  0
  2  4  1  0
  4  5  1  1
  4  6  1  0
  6  7  1  6
  6  8  1  0
  6  9  1  0
  9 10  1  0
M  CHG  1   1  -1
M  END
$$$$
