1N2J_PAF_A_1001
     RDKit          3D

 10  9  0  0  0  0  0  0  0  0999 V2000
   42.7604   19.6893   66.4960 O   0  0  0  0  0  0  0  0  0  0  0  0
   42.3004   18.7431   67.3913 C   0  0  0  0  0  0  0  0  0  0  0  0
   42.8699   18.6855   68.5277 O   0  0  0  0  0  0  0  0  0  0  0  0
   41.1910   17.8500   67.0138 C   0  0  2  0  0  0  0  0  0  0  0  0
   41.0889   17.6523   65.6455 O   0  0  0  0  0  0  0  0  0  0  0  0
   39.8705   18.3246   67.5802 C   0  0  1  0  0  0  0  0  0  0  0  0
   39.9545   18.5060   69.0680 C   0  0  0  0  0  0  0  0  0  0  0  0
   39.5354   19.6694   66.9783 C   0  0  0  0  0  0  0  0  0  0  0  0
   38.8160   17.2865   67.1745 C   0  0  0  0  0  0  0  0  0  0  0  0
   39.4375   16.0512   67.3801 O   0  0  0  0  0  0  0  0  0  0  0  0
  1  2  1  0
  2  3  2  0
  2  4  1  0
  4  5  1  6
  4  6  1  0
  6  7  1  1
  6  8  1  0
  6  9  1  0
  9 10  1  0
M  CHG  1   1  -1
M  END
$$$$
