7CNS_PMV_A_501
     RDKit          3D

 14 13  0  0  0  0  0  0  0  0999 V2000
    2.7430  -18.7780  -15.1030 O   0  0  0  0  0  0  0  0  0  0  0  0
    3.5210  -19.7890  -15.9100 P   0  0  0  0  0  0  0  0  0  0  0  0
    4.3360  -20.6780  -14.9880 O   0  0  0  0  0  0  0  0  0  0  0  0
    4.4470  -18.9940  -16.9410 O   0  0  0  0  0  0  0  0  0  0  0  0
    2.4560  -20.6940  -16.6990 O   0  0  0  0  0  0  0  0  0  0  0  0
    1.7350  -20.1800  -17.8210 C   0  0  0  0  0  0  0  0  0  0  0  0
    0.9420  -21.2990  -18.4890 C   0  0  0  0  0  0  0  0  0  0  0  0
    0.3170  -20.8650  -19.8180 C   0  0  2  0  0  0  0  0  0  0  0  0
   -0.5940  -19.7740  -19.5930 O   0  0  0  0  0  0  0  0  0  0  0  0
   -0.4960  -22.0480  -20.3090 C   0  0  0  0  0  0  0  0  0  0  0  0
    1.4160  -20.4010  -20.7880 C   0  0  0  0  0  0  0  0  0  0  0  0
    1.0070  -20.0890  -22.2230 C   0  0  0  0  0  0  0  0  0  0  0  0
   -0.1920  -20.1350  -22.5860 O   0  0  0  0  0  0  0  0  0  0  0  0
    1.9250  -19.9080  -23.0650 O   0  0  0  0  0  0  0  0  0  0  0  0
  1  2  1  0
  2  3  1  0
  2  4  2  0
  2  5  1  0
  5  6  1  0
  6  7  1  0
  7  8  1  0
  8  9  1  0
  8 10  1  6
  8 11  1  0
 11 12  1  0
 12 13  1  0
 12 14  2  0
M  END
$$$$
