7O0N_CDP_B_304
     RDKit          3D

 40 41  0  0  0  0  0  0  0  0999 V2000
    9.4343   23.5966   21.3748 O   0  0  0  0  0  0  0  0  0  0  0  0
    8.4744   22.3068   20.8424 P   0  0  1  0  0  5  0  0  0  0  0  0
    7.0250   22.6432   21.1081 O   0  0  0  0  0  0  0  0  0  0  0  0
    8.6746   22.0786   19.1750 O   0  0  0  0  0  0  0  0  0  0  0  0
    8.8636   20.8939   21.7083 O   0  0  0  0  0  0  0  0  0  0  0  0
    9.9232   19.9673   20.7512 P   0  0  2  0  0  5  0  0  0  0  0  0
   10.4852   20.8695   19.6752 O   0  0  0  0  0  0  0  0  0  0  0  0
    9.0935   18.6904   20.0051 O   0  0  0  0  0  0  0  0  0  0  0  0
   11.1981   19.3743   21.7195 O   0  0  0  0  0  0  0  0  0  0  0  0
   11.8289   18.3152   21.0378 C   0  0  2  0  0  0  0  0  0  0  0  0
   13.0736   17.8793   21.8163 C   0  0  1  0  0  0  0  0  0  0  0  0
   13.7394   19.0123   22.3177 O   0  0  0  0  0  0  0  0  0  0  0  0
   12.7346   16.9824   23.0003 C   0  0  1  0  0  0  0  0  0  0  0  0
   12.6982   15.6334   22.6097 O   0  0  0  0  0  0  0  0  0  0  0  0
   13.8522   17.2746   23.9815 C   0  0  1  0  0  0  0  0  0  0  0  0
   14.8163   16.2517   23.9699 O   0  0  0  0  0  0  0  0  0  0  0  0
   14.4560   18.5878   23.4575 C   0  0  2  0  0  0  0  0  0  0  0  0
   14.4306   19.6350   24.4996 N   0  0  0  0  0  0  0  0  0  0  0  0
   13.2950   20.3629   24.7664 C   0  0  0  0  0  0  0  0  0  0  0  0
   12.2333   20.1675   24.1160 O   0  0  0  0  0  0  0  0  0  0  0  0
   13.2998   21.3048   25.7457 N   0  0  0  0  0  0  0  0  0  0  0  0
   14.4073   21.5482   26.4902 C   0  0  0  0  0  0  0  0  0  0  0  0
   14.3734   22.5470   27.5100 N   0  0  0  0  0  0  0  0  0  0  0  0
   15.5671   20.8133   26.2551 C   0  0  0  0  0  0  0  0  0  0  0  0
   15.5548   19.8491   25.2496 C   0  0  0  0  0  0  0  0  0  0  0  0
   10.2819   23.5073   20.8703 H   0  0  0  0  0  0  0  0  0  0  0  0
    9.5040   21.5450   19.0846 H   0  0  0  0  0  0  0  0  0  0  0  0
    8.6769   19.0864   19.1989 H   0  0  0  0  0  0  0  0  0  0  0  0
   12.1360   18.6281   20.0138 H   0  0  0  0  0  0  0  0  0  0  0  0
   11.1518   17.4348   20.9614 H   0  0  0  0  0  0  0  0  0  0  0  0
   13.7613   17.3460   21.1192 H   0  0  0  0  0  0  0  0  0  0  0  0
   11.7578   17.2850   23.4479 H   0  0  0  0  0  0  0  0  0  0  0  0
   13.2510   15.1363   23.2675 H   0  0  0  0  0  0  0  0  0  0  0  0
   13.4275   17.3840   25.0074 H   0  0  0  0  0  0  0  0  0  0  0  0
   15.5952   16.5948   24.4810 H   0  0  0  0  0  0  0  0  0  0  0  0
   15.5052   18.4071   23.1254 H   0  0  0  0  0  0  0  0  0  0  0  0
   15.2527   22.8818   27.9634 H   0  0  0  0  0  0  0  0  0  0  0  0
   13.4624   22.9561   27.8149 H   0  0  0  0  0  0  0  0  0  0  0  0
   16.4623   20.9812   26.8404 H   0  0  0  0  0  0  0  0  0  0  0  0
   16.4557   19.2725   25.0755 H   0  0  0  0  0  0  0  0  0  0  0  0
  2  1  1  1
  2  3  2  0
  2  4  1  0
  2  5  1  0
  6  5  1  1
  6  7  2  0
  6  8  1  0
  6  9  1  0
  9 10  1  0
 11 10  1  0
 11 12  1  0
 11 13  1  0
 13 14  1  0
 13 15  1  0
 15 16  1  0
 12 17  1  0
 15 17  1  0
 17 18  1  0
 18 19  1  0
 19 20  2  0
 19 21  1  0
 21 22  2  0
 22 23  1  0
 22 24  1  0
 18 25  1  0
 24 25  2  0
  1 26  1  0
  4 27  1  0
  8 28  1  0
 10 29  1  6
 10 30  1  0
 11 31  1  6
 13 32  1  1
 14 33  1  0
 15 34  1  1
 16 35  1  0
 17 36  1  6
 23 37  1  0
 23 38  1  0
 24 39  1  0
 25 40  1  0
M  END
