7ZHP_IQY_A_408
     RDKit          3D

 27 30  0  0  0  0  0  0  0  0999 V2000
   61.0583   36.4847   -1.2128 N   0  0  0  0  0  0  0  0  0  0  0  0
   62.5128   41.5084    3.4422 C   0  0  2  0  0  0  0  0  0  0  0  0
   59.1529   35.3700   -2.1547 N   0  0  0  0  0  0  0  0  0  0  0  0
   63.4766   40.0376    1.4102 C   0  0  0  0  0  0  0  0  0  0  0  0
   64.0141   39.2820    0.3085 C   0  0  0  0  0  0  0  0  0  0  0  0
   65.3606   39.4433   -0.0482 C   0  0  0  0  0  0  0  0  0  0  0  0
   63.3684   42.6584    3.6014 O   0  0  0  0  0  0  0  0  0  0  0  0
   61.0904   42.0042    3.1732 C   0  0  0  0  0  0  0  0  0  0  0  0
   60.0125   41.0182    3.4702 C   0  0  0  0  0  0  0  0  0  0  0  0
   62.5792   40.6877    4.7157 C   0  0  0  0  0  0  0  0  0  0  0  0
   62.2730   41.4659    5.9769 C   0  0  0  0  0  0  0  0  0  0  0  0
   63.0039   40.6797    2.3029 C   0  0  0  0  0  0  0  0  0  0  0  0
   63.2112   38.3467   -0.3661 C   0  0  0  0  0  0  0  0  0  0  0  0
   63.7673   37.5590   -1.3868 C   0  0  0  0  0  0  0  0  0  0  0  0
   65.1299   37.7212   -1.6968 C   0  0  0  0  0  0  0  0  0  0  0  0
   65.9280   38.6556   -1.0373 C   0  0  0  0  0  0  0  0  0  0  0  0
   63.2442   36.5269   -2.2950 C   0  0  0  0  0  0  0  0  0  0  0  0
   61.7986   36.1184   -2.2714 C   0  0  0  0  0  0  0  0  0  0  0  0
   61.2411   35.3849   -3.3339 C   0  0  0  0  0  0  0  0  0  0  0  0
   59.9215   35.0240   -3.1867 C   0  0  0  0  0  0  0  0  0  0  0  0
   59.7602   36.1042   -1.2042 C   0  0  0  0  0  0  0  0  0  0  0  0
   59.0021   36.5493   -0.2031 N   0  0  0  0  0  0  0  0  0  0  0  0
   61.9591   35.0559   -4.6202 C   0  0  0  0  0  0  0  0  0  0  0  0
   63.1961   34.2246   -4.4267 C   0  0  0  0  0  0  0  0  0  0  0  0
   64.4408   35.0827   -4.1754 C   0  0  0  0  0  0  0  0  0  0  0  0
   64.3422   36.1113   -3.0889 C   0  0  0  0  0  0  0  0  0  0  0  0
   65.4639   36.8423   -2.7199 N   0  0  0  0  0  0  0  0  0  0  0  0
  4  5  1  0
  5  6  2  0
  2  7  1  1
  2  8  1  0
  8  9  1  0
  2 10  1  0
 10 11  1  0
  4 12  3  0
  2 12  1  0
  5 13  1  0
 13 14  2  0
 14 15  1  0
 15 16  2  0
  6 16  1  0
 14 17  1  0
 17 18  1  0
  1 18  2  0
 18 19  1  0
 19 20  2  0
  3 20  1  0
  3 21  2  0
  1 21  1  0
 21 22  1  0
 19 23  1  0
 23 24  1  0
 24 25  1  0
 25 26  1  0
 17 26  2  0
 26 27  1  0
 15 27  1  0
M  END
