1J3J_CP6_A_609
     RDKit          3D

 17 18  0  0  0  0  0  0  0  0999 V2000
   38.0170   -3.2946   34.0921 N   0  0  0  0  0  0  0  0  0  0  0  0
   37.8173   -4.5543   34.4741 C   0  0  0  0  0  0  0  0  0  0  0  0
   37.0190   -2.5028   33.6924 C   0  0  0  0  0  0  0  0  0  0  0  0
   35.7448   -3.0356   33.6851 C   0  0  0  0  0  0  0  0  0  0  0  0
   35.5084   -4.3432   34.0775 C   0  0  0  0  0  0  0  0  0  0  0  0
   36.5927   -5.0481   34.4610 N   0  0  0  0  0  0  0  0  0  0  0  0
   34.5684   -2.2689   33.2688 C   0  0  0  0  0  0  0  0  0  0  0  0
   34.1762   -2.2802   31.9245 C   0  0  0  0  0  0  0  0  0  0  0  0
   33.0471   -1.5177   31.6488 C   0  0  0  0  0  0  0  0  0  0  0  0
   32.3475   -0.8065   32.5602 C   0  0  0  0  0  0  0  0  0  0  0  0
   32.7411   -0.7999   33.8875 C   0  0  0  0  0  0  0  0  0  0  0  0
   33.8605   -1.5484   34.1930 C   0  0  0  0  0  0  0  0  0  0  0  0
   37.2141   -1.1570   33.2803 N   0  0  0  0  0  0  0  0  0  0  0  0
   38.8751   -5.4213   34.9072 N   0  0  0  0  0  0  0  0  0  0  0  0
   34.1889   -4.9791   34.1001 C   0  0  0  0  0  0  0  0  0  0  0  0
   34.2114   -6.3549   34.6915 C   0  0  0  0  0  0  0  0  0  0  0  0
   30.9443    0.1004   32.0404 Cl  0  0  0  0  0  0  0  0  0  0  0  0
  1  2  2  0
  1  3  1  0
  3  4  2  0
  4  5  1  0
  2  6  1  0
  5  6  2  0
  4  7  1  0
  7  8  2  0
  8  9  1  0
  9 10  2  0
 10 11  1  0
  7 12  1  0
 11 12  2  0
  3 13  1  0
  2 14  1  0
 15  5  1  6
 16 15  1  6
 10 17  1  0
M  END
$$$$
