7W06_ITN_A_301
     RDKit          3D

 15 14  0  0  0  0  0  0  0  0999 V2000
  -17.6168   15.7410   31.7059 C   0  0  0  0  0  0  0  0  0  0  0  0
  -18.7458   15.6877   30.7269 C   0  0  2  0  0  0  0  0  0  0  0  0
  -19.6206   16.9069   30.8739 C   0  0  0  0  0  0  0  0  0  0  0  0
  -19.3560   18.1035   30.0409 C   0  0  0  0  0  0  0  0  0  0  0  0
  -19.5536   18.0503   28.6639 O   0  0  0  0  0  0  0  0  0  0  0  0
  -18.9501   19.1766   30.5651 O   0  0  0  0  0  0  0  0  0  0  0  0
  -20.5920   16.9155   31.7958 C   0  0  0  0  0  0  0  0  0  0  0  0
  -16.4832   16.1537   31.3419 O   0  0  0  0  0  0  0  0  0  0  0  0
  -17.8311   15.3730   33.0304 O   0  0  0  0  0  0  0  0  0  0  0  0
  -19.3332   14.7585   30.8962 H   0  0  0  0  0  0  0  0  0  0  0  0
  -18.3450   15.6241   29.6921 H   0  0  0  0  0  0  0  0  0  0  0  0
  -19.7701   17.1747   28.2027 H   0  0  0  0  0  0  0  0  0  0  0  0
  -20.7690   16.0515   32.4245 H   0  0  0  0  0  0  0  0  0  0  0  0
  -21.2245   17.7816   31.9435 H   0  0  0  0  0  0  0  0  0  0  0  0
  -18.5078   14.6574   33.2676 H   0  0  0  0  0  0  0  0  0  0  0  0
  1  2  1  0
  2  3  1  0
  3  4  1  0
  4  5  1  0
  4  6  2  0
  3  7  2  0
  1  8  2  0
  1  9  1  0
  2 10  1  1
  2 11  1  0
  5 12  1  0
  7 13  1  0
  7 14  1  0
  9 15  1  0
M  END
