
     RDKit          3D

 17 18  0  0  0  0  0  0  0  0999 V2000
    2.0164   22.6666  -29.5864 C   0  0  0  0  0  0  0  0  0  0  0  0
    2.0234   23.4618  -30.7261 C   0  0  0  0  0  0  0  0  0  0  0  0
    2.8083   23.0781  -31.8064 C   0  0  0  0  0  0  0  0  0  0  0  0
    3.5730   21.9151  -31.7583 C   0  0  0  0  0  0  0  0  0  0  0  0
    3.5523   21.1041  -30.6159 C   0  0  0  0  0  0  0  0  0  0  0  0
    2.7739   21.4975  -29.5177 C   0  0  0  0  0  0  0  0  0  0  0  0
    4.3938   19.8991  -30.5876 C   0  0  0  0  0  0  0  0  0  0  0  0
    5.2674   19.5756  -31.5550 C   0  0  0  0  0  0  0  0  0  0  0  0
    6.1107   18.3721  -31.5250 C   0  0  0  0  0  0  0  0  0  0  0  0
    6.9793   18.1275  -32.5972 C   0  0  0  0  0  0  0  0  0  0  0  0
    7.8163   17.0091  -32.5922 C   0  0  0  0  0  0  0  0  0  0  0  0
    7.7960   16.1390  -31.5099 C   0  0  0  0  0  0  0  0  0  0  0  0
    6.9545   16.3701  -30.4277 C   0  0  0  0  0  0  0  0  0  0  0  0
    6.1167   17.4898  -30.4349 C   0  0  0  0  0  0  0  0  0  0  0  0
    8.6295   15.0610  -31.5453 O   0  0  0  0  0  0  0  0  0  0  0  0
    2.8593   23.8248  -32.9472 O   0  0  0  0  0  0  0  0  0  0  0  0
    1.2463   23.0753  -28.5362 O   0  0  0  0  0  0  0  0  0  0  0  0
  1  2  4  0
  2  3  4  0
  3  4  4  0
  4  5  4  0
  1  6  4  0
  5  6  4  0
  5  7  1  0
  7  8  2  0
  8  9  1  0
  9 10  4  0
 10 11  4  0
 11 12  4  0
 12 13  4  0
  9 14  4  0
 13 14  4  0
 12 15  1  0
  3 16  1  0
  1 17  1  0
M  END
