
     RDKit          3D

 32 35  0  0  0  0  0  0  0  0999 V2000
    3.4854    9.6859   25.5415 C   0  0  0  0  0  0  0  0  0  0  0  0
    4.5972    8.8761   25.3132 C   0  0  0  0  0  0  0  0  0  0  0  0
    5.0038    8.6633   23.9846 C   0  0  0  0  0  0  0  0  0  0  0  0
    4.3190    9.2297   22.9073 C   0  0  0  0  0  0  0  0  0  0  0  0
    3.1829   10.0429   23.1442 C   0  0  0  0  0  0  0  0  0  0  0  0
    2.7925   10.2589   24.4803 C   0  0  0  0  0  0  0  0  0  0  0  0
    6.0551    7.9177   23.4635 N   0  0  0  0  0  0  0  0  0  0  0  0
    6.0728    8.0128   22.0818 C   0  0  0  0  0  0  0  0  0  0  0  0
    4.9855    8.7958   21.7317 C   0  0  0  0  0  0  0  0  0  0  0  0
    2.3744   10.6878   22.0511 C   0  0  0  0  0  0  0  0  0  0  0  0
    6.9729    7.3661   21.1492 C   0  0  0  0  0  0  0  0  0  0  0  0
    6.3717    6.8218   20.0405 N   0  0  0  0  0  0  0  0  0  0  0  0
    7.1351    6.2818   18.9387 C   0  0  0  0  0  0  0  0  0  0  0  0
    7.3819    4.8031   19.1063 C   0  0  0  0  0  0  0  0  0  0  0  0
    6.9055    7.0376   24.2697 C   0  0  0  0  0  0  0  0  0  0  0  0
    8.2313    7.6593   24.6548 C   0  0  0  0  0  0  0  0  0  0  0  0
    8.7186    8.8372   24.0648 C   0  0  0  0  0  0  0  0  0  0  0  0
    9.9492    9.3768   24.4469 C   0  0  0  0  0  0  0  0  0  0  0  0
   10.7123    8.7522   25.4305 C   0  0  0  0  0  0  0  0  0  0  0  0
   10.2360    7.5905   26.0401 C   0  0  0  0  0  0  0  0  0  0  0  0
    8.9964    7.0561   25.6677 C   0  0  0  0  0  0  0  0  0  0  0  0
    6.5923    4.0438   19.9865 C   0  0  0  0  0  0  0  0  0  0  0  0
    6.8117    2.6734   20.1310 C   0  0  0  0  0  0  0  0  0  0  0  0
    7.8015    2.0318   19.3943 C   0  0  0  0  0  0  0  0  0  0  0  0
    8.5759    2.7747   18.5074 C   0  0  0  0  0  0  0  0  0  0  0  0
    8.3791    4.1514   18.3673 C   0  0  0  0  0  0  0  0  0  0  0  0
   11.0416    6.9064   27.0825 C   0  0  0  0  0  0  0  0  0  0  0  0
   10.6346    5.8346   27.6818 N   0  0  0  0  0  0  0  0  0  0  0  0
    5.8489    1.7680   21.2324 Cl  0  0  0  0  0  0  0  0  0  0  0  0
    9.7749    1.9812   17.5618 Cl  0  0  0  0  0  0  0  0  0  0  0  0
    8.1796    7.2734   21.3507 O   0  0  0  0  0  0  0  0  0  0  0  0
   12.2556    7.4041   27.4469 N   0  0  0  0  0  0  0  0  0  0  0  0
  1  2  4  0
  2  3  4  0
  3  4  4  0
  4  5  4  0
  1  6  4  0
  5  6  4  0
  3  7  4  0
  7  8  4  0
  4  9  4  0
  8  9  4  0
  5 10  1  0
  8 11  1  0
 11 12  1  0
 12 13  1  0
 13 14  1  0
  7 15  1  0
 15 16  1  0
 16 17  4  0
 17 18  4  0
 18 19  4  0
 19 20  4  0
 16 21  4  0
 20 21  4  0
 14 22  4  0
 22 23  4  0
 23 24  4  0
 24 25  4  0
 14 26  4  0
 25 26  4  0
 20 27  1  0
 27 28  2  0
 23 29  1  0
 25 30  1  0
 11 31  2  0
 27 32  1  0
M  END
