7UMV_NUU_A_501
     RDKit          3D

 22 24  0  0  0  0  0  0  0  0999 V2000
  -35.7640   -0.2021  -12.9756 C   0  0  0  0  0  0  0  0  0  0  0  0
  -36.7061   -2.4158  -13.6902 C   0  0  0  0  0  0  0  0  0  0  0  0
  -37.6232   -4.4408  -14.4829 C   0  0  0  0  0  0  0  0  0  0  0  0
  -37.1491   -2.7212  -12.4228 C   0  0  0  0  0  0  0  0  0  0  0  0
  -36.8943   -1.7719  -11.3471 C   0  0  0  0  0  0  0  0  0  0  0  0
  -41.2676   -4.4488   -8.9702 C   0  0  0  0  0  0  0  0  0  0  0  0
  -40.8045   -4.2737   -7.5569 C   0  0  1  0  0  0  0  0  0  0  0  0
  -41.9950   -3.9449   -6.6668 C   0  0  0  0  0  0  0  0  0  0  0  0
  -40.1358   -5.4779   -6.9750 C   0  0  0  0  0  0  0  0  0  0  0  0
  -39.8409   -3.1345   -7.5028 C   0  0  0  0  0  0  0  0  0  0  0  0
  -38.3657   -3.3633   -7.5537 C   0  0  0  0  0  0  0  0  0  0  0  0
  -37.0627   -1.2432   -9.1119 C   0  0  0  0  0  0  0  0  0  0  0  0
  -35.9780    0.2588  -10.5918 C   0  0  0  0  0  0  0  0  0  0  0  0
  -36.2273   -0.6141  -11.6401 C   0  0  0  0  0  0  0  0  0  0  0  0
  -35.9514   -1.2067  -14.0474 C   0  0  0  0  0  0  0  0  0  0  0  0
  -38.0698   -4.7557  -13.2190 C   0  0  0  0  0  0  0  0  0  0  0  0
  -37.8439   -3.9038  -12.1590 C   0  0  0  0  0  0  0  0  0  0  0  0
  -36.4079   -0.0829   -9.3375 N   0  0  0  0  0  0  0  0  0  0  0  0
  -36.9576   -3.2932  -14.6993 N   0  0  0  0  0  0  0  0  0  0  0  0
  -37.3210   -2.1179  -10.1218 N   0  0  0  0  0  0  0  0  0  0  0  0
  -40.2211   -1.9783   -7.4157 O   0  0  0  0  0  0  0  0  0  0  0  0
  -37.6152   -1.6899   -7.4539 S   0  0  0  0  0  0  0  0  0  0  0  0
  2  4  2  0
  4  5  1  0
  6  7  1  6
  8  7  1  6
  9  7  1  1
  7 10  1  6
 10 11  1  0
  1 14  1  1
  5 14  2  0
 13 14  1  0
 15  2  1  1
  1 15  1  0
  3 16  1  0
 16 17  2  0
  4 17  1  0
 13 18  2  0
 12 18  1  0
  3 19  2  0
  2 19  1  0
  5 20  1  0
 12 20  2  0
 10 21  2  0
 12 22  1  0
 11 22  1  1
M  END
$$$$
