8EX2_Q2Q_A_901
     RDKit          3D

 38 41  0  0  0  0  0  0  0  0999 V2000
   22.0105    8.8494   23.3882 C   0  0  0  0  0  0  0  0  0  0  0  0
   20.7479    9.4408   23.4371 C   0  0  0  0  0  0  0  0  0  0  0  0
   20.5615   10.7399   22.9557 C   0  0  0  0  0  0  0  0  0  0  0  0
   21.6421   11.4706   22.4155 C   0  0  0  0  0  0  0  0  0  0  0  0
   22.9119   10.8556   22.3737 C   0  0  0  0  0  0  0  0  0  0  0  0
   23.0902    9.5558   22.8573 C   0  0  0  0  0  0  0  0  0  0  0  0
   21.4323   12.8574   21.9031 C   0  0  0  0  0  0  0  0  0  0  0  0
   22.5987   13.6324   21.2732 C   0  0  1  0  0  0  0  0  0  0  0  0
   22.2328   15.0219   20.8138 C   0  0  0  0  0  0  0  0  0  0  0  0
   19.9584   14.7028   21.5287 C   0  0  0  0  0  0  0  0  0  0  0  0
   18.7698   15.3964   21.5943 C   0  0  0  0  0  0  0  0  0  0  0  0
   19.0868   16.6324   21.0132 C   0  0  0  0  0  0  0  0  0  0  0  0
   18.1702   17.7985   20.7885 C   0  0  2  0  0  0  0  0  0  0  0  0
   17.4866   14.9112   22.1470 C   0  0  0  0  0  0  0  0  0  0  0  0
   17.2570   13.5311   22.2841 C   0  0  0  0  0  0  0  0  0  0  0  0
   16.0531   13.0649   22.8209 C   0  0  0  0  0  0  0  0  0  0  0  0
   15.0724   13.9707   23.2321 C   0  0  0  0  0  0  0  0  0  0  0  0
   15.2963   15.3444   23.1113 C   0  0  0  0  0  0  0  0  0  0  0  0
   16.4991   15.8148   22.5750 C   0  0  0  0  0  0  0  0  0  0  0  0
   16.9286   17.3633   20.3625 F   0  0  0  0  0  0  0  0  0  0  0  0
   18.7017   18.6295   19.8189 F   0  0  0  0  0  0  0  0  0  0  0  0
   18.0331   18.5145   21.9624 F   0  0  0  0  0  0  0  0  0  0  0  0
   20.8938   15.4692   20.9810 N   0  0  0  0  0  0  0  0  0  0  0  0
   20.2405   13.3874   22.0015 N   0  0  0  0  0  0  0  0  0  0  0  0
   20.3950   16.6503   20.6591 N   0  0  0  0  0  0  0  0  0  0  0  0
   23.0989   15.7726   20.2910 O   0  0  0  0  0  0  0  0  0  0  0  0
   22.1522    7.8435   23.7616 H   0  0  0  0  0  0  0  0  0  0  0  0
   19.9107    8.8919   23.8488 H   0  0  0  0  0  0  0  0  0  0  0  0
   19.5687   11.1689   23.0080 H   0  0  0  0  0  0  0  0  0  0  0  0
   23.7736   11.3683   21.9697 H   0  0  0  0  0  0  0  0  0  0  0  0
   24.0692    9.0952   22.8197 H   0  0  0  0  0  0  0  0  0  0  0  0
   23.4168   13.7205   22.0190 H   0  0  0  0  0  0  0  0  0  0  0  0
   22.9747   13.0658   20.3950 H   0  0  0  0  0  0  0  0  0  0  0  0
   18.0022   12.8141   21.9624 H   0  0  0  0  0  0  0  0  0  0  0  0
   15.8804   12.0007   22.9173 H   0  0  0  0  0  0  0  0  0  0  0  0
   14.1414   13.6086   23.6486 H   0  0  0  0  0  0  0  0  0  0  0  0
   14.5405   16.0457   23.4404 H   0  0  0  0  0  0  0  0  0  0  0  0
   16.6648   16.8813   22.5189 H   0  0  0  0  0  0  0  0  0  0  0  0
  1  2  2  0
  2  3  1  0
  3  4  2  0
  4  5  1  0
  5  6  2  0
  1  6  1  0
  4  7  1  0
  7  8  1  0
  8  9  1  0
 10 11  2  0
 11 12  1  0
 12 13  1  0
 11 14  1  0
 14 15  2  0
 15 16  1  0
 16 17  2  0
 17 18  1  0
 18 19  2  0
 14 19  1  0
 13 20  1  6
 13 21  1  0
 13 22  1  0
 10 23  1  0
  9 23  1  0
  7 24  2  0
 10 24  1  0
 12 25  2  0
 23 25  1  0
  9 26  2  0
  1 27  1  0
  2 28  1  0
  3 29  1  0
  5 30  1  0
  6 31  1  0
  8 32  1  1
  8 33  1  0
 15 34  1  0
 16 35  1  0
 17 36  1  0
 18 37  1  0
 19 38  1  0
M  END
