7SNE_9XR_B_201
     RDKit          3D

 74 78  0  0  0  0  0  0  0  0999 V2000
    4.6663    4.8575   -1.8198 O   0  0  0  0  0  0  0  0  0  0  0  0
    4.3995    3.8758   -1.0758 C   0  0  0  0  0  0  0  0  0  0  0  0
    5.1828    3.6691    0.1039 N   0  0  0  0  0  0  0  0  0  0  0  0
    3.2786    2.9716   -1.4298 C   0  0  0  0  0  0  0  0  0  0  0  0
    3.1177    2.4917   -2.7426 C   0  0  0  0  0  0  0  0  0  0  0  0
    2.3394    2.6049   -0.4516 C   0  0  0  0  0  0  0  0  0  0  0  0
    1.2692    1.7706   -0.7758 C   0  0  0  0  0  0  0  0  0  0  0  0
    1.1184    1.2933   -2.0781 C   0  0  0  0  0  0  0  0  0  0  0  0
    2.0415    1.6538   -3.0790 C   0  0  0  0  0  0  0  0  0  0  0  0
    0.9339    1.7332   -5.3844 C   0  0  1  0  0  0  0  0  0  0  0  0
    0.6051    3.0573   -5.0322 O   0  0  0  0  0  0  0  0  0  0  0  0
    1.4337    1.7499   -6.8245 C   0  0  2  0  0  0  0  0  0  0  0  0
    2.7739    2.1795   -6.8895 O   0  0  0  0  0  0  0  0  0  0  0  0
    0.5281    2.7981   -7.4180 C   0  0  2  0  0  0  0  0  0  0  0  0
    1.1427    3.4638   -8.4913 O   0  0  0  0  0  0  0  0  0  0  0  0
    0.2815    3.7370   -6.2287 C   0  0  1  0  0  0  0  0  0  0  0  0
   -1.1685    4.2222   -6.1600 C   0  0  0  0  0  0  0  0  0  0  0  0
   -1.6443    4.0168   -4.8509 O   0  0  0  0  0  0  0  0  0  0  0  0
   -0.3825    3.3925   -3.8883 P   0  0  1  0  0  5  0  0  0  0  0  0
   -0.6132    3.8510   -2.2755 O   0  0  0  0  0  0  0  0  0  0  0  0
   -0.3664    1.8812   -3.9702 O   0  0  0  0  0  0  0  0  0  0  0  0
    1.1046    4.0264   -4.4202 O   0  0  0  0  0  0  0  0  0  0  0  0
    0.9217    4.4703   -6.0548 P   0  0  2  0  0  5  0  0  0  0  0  0
    0.0650    5.9280   -6.1592 O   0  0  0  0  0  0  0  0  0  0  0  0
    0.1304    3.3841   -6.7506 O   0  0  0  0  0  0  0  0  0  0  0  0
    2.4462    4.6464   -6.8031 O   0  0  0  0  0  0  0  0  0  0  0  0
    3.2551    5.4697   -5.9974 C   0  0  0  0  0  0  0  0  0  0  0  0
    4.5467    4.7206   -5.6474 C   0  0  2  0  0  0  0  0  0  0  0  0
    4.4255    3.2201   -5.9106 C   0  0  1  0  0  0  0  0  0  0  0  0
    4.8924    2.8709   -7.1878 O   0  0  0  0  0  0  0  0  0  0  0  0
    5.2826    2.6258   -4.8230 C   0  0  1  0  0  0  0  0  0  0  0  0
    6.6168    2.4408   -5.2408 O   0  0  0  0  0  0  0  0  0  0  0  0
    5.1889    3.6745   -3.7094 C   0  0  1  0  0  0  0  0  0  0  0  0
    4.8799    4.9271   -4.2889 O   0  0  0  0  0  0  0  0  0  0  0  0
    4.1667    3.3044   -2.7179 N   0  0  0  0  0  4  0  0  0  0  0  0
    3.0605    3.9660   -2.3374 C   0  0  0  0  0  0  0  0  0  0  0  0
    2.4450    3.2887   -1.3411 C   0  0  0  0  0  0  0  0  0  0  0  0
    3.1341    2.1748   -1.0312 N   0  0  0  0  0  0  0  0  0  0  0  0
    4.1880    2.2233   -1.8928 C   0  0  0  0  0  0  0  0  0  0  0  0
    2.5943    5.1509   -2.8049 N   0  0  0  0  0  0  0  0  0  0  0  0
    1.4510    5.6589   -2.2529 C   0  0  0  0  0  0  0  0  0  0  0  0
    0.8061    4.9848   -1.2471 N   0  0  0  0  0  0  0  0  0  0  0  0
    1.2824    3.7955   -0.7692 C   0  0  0  0  0  0  0  0  0  0  0  0
    0.6018    3.1106    0.2837 N   0  0  0  0  0  0  0  0  0  0  0  0
    1.9119    1.1866   -4.4367 N   0  0  0  0  0  0  0  0  0  0  0  0
    4.9054    2.9765    0.8337 H   0  0  0  0  0  0  0  0  0  0  0  0
    6.0067    4.2819    0.2945 H   0  0  0  0  0  0  0  0  0  0  0  0
    3.8060    2.7919   -3.5212 H   0  0  0  0  0  0  0  0  0  0  0  0
    2.4343    2.9625    0.5661 H   0  0  0  0  0  0  0  0  0  0  0  0
    0.5510    1.4947   -0.0142 H   0  0  0  0  0  0  0  0  0  0  0  0
    0.2755    0.6520   -2.2939 H   0  0  0  0  0  0  0  0  0  0  0  0
    0.0125    1.1073   -5.3465 H   0  0  0  0  0  0  0  0  0  0  0  0
    1.2862    0.7618   -7.3230 H   0  0  0  0  0  0  0  0  0  0  0  0
    3.3232    1.3858   -7.1195 H   0  0  0  0  0  0  0  0  0  0  0  0
   -0.4167    2.3078   -7.7566 H   0  0  0  0  0  0  0  0  0  0  0  0
    0.4388    4.0205   -8.9141 H   0  0  0  0  0  0  0  0  0  0  0  0
    0.9511    4.6231   -6.3122 H   0  0  0  0  0  0  0  0  0  0  0  0
   -1.2027    5.3074   -6.4008 H   0  0  0  0  0  0  0  0  0  0  0  0
   -1.7561    3.6519   -6.9186 H   0  0  0  0  0  0  0  0  0  0  0  0
   -0.6134    4.8411   -2.2920 H   0  0  0  0  0  0  0  0  0  0  0  0
   -0.7589    5.7763   -5.6319 H   0  0  0  0  0  0  0  0  0  0  0  0
    3.5139    6.4020   -6.5469 H   0  0  0  0  0  0  0  0  0  0  0  0
    2.7388    5.7294   -5.0449 H   0  0  0  0  0  0  0  0  0  0  0  0
    5.3708    5.1395   -6.2627 H   0  0  0  0  0  0  0  0  0  0  0  0
    3.3769    2.8631   -5.7708 H   0  0  0  0  0  0  0  0  0  0  0  0
    4.1986    3.1708   -7.8319 H   0  0  0  0  0  0  0  0  0  0  0  0
    4.8772    1.6395   -4.5101 H   0  0  0  0  0  0  0  0  0  0  0  0
    6.9950    3.3278   -5.4772 H   0  0  0  0  0  0  0  0  0  0  0  0
    6.1652    3.7599   -3.1833 H   0  0  0  0  0  0  0  0  0  0  0  0
    4.9710    1.4751   -1.9071 H   0  0  0  0  0  0  0  0  0  0  0  0
    1.0542    6.6001   -2.6105 H   0  0  0  0  0  0  0  0  0  0  0  0
    0.9491    2.1908    0.6386 H   0  0  0  0  0  0  0  0  0  0  0  0
   -0.2676    3.5154    0.6981 H   0  0  0  0  0  0  0  0  0  0  0  0
    2.5336    0.4040   -4.7398 H   0  0  0  0  0  0  0  0  0  0  0  0
  1  2  2  0
  2  3  1  0
  2  4  1  0
  4  5  4  0
  4  6  4  0
  6  7  4  0
  7  8  4  0
  8  9  4  0
  5  9  4  0
 10 11  1  0
 10 12  1  0
 12 13  1  0
 12 14  1  0
 14 15  1  0
 11 16  1  0
 14 16  1  0
 16 17  1  0
 17 18  1  0
 19 18  1  6
 19 20  1  0
 19 21  2  0
 19 22  1  0
 23 22  1  1
 23 24  1  0
 23 25  2  0
 23 26  1  0
 26 27  1  0
 28 27  1  0
 28 29  1  0
 29 30  1  0
 29 31  1  0
 31 32  1  0
 31 33  1  0
 28 34  1  0
 33 34  1  0
 33 35  1  0
 35 36  4  0
 36 37  4  0
 37 38  4  0
 35 39  4  0
 38 39  4  0
 36 40  4  0
 40 41  4  0
 41 42  4  0
 37 43  4  0
 42 43  4  0
 43 44  1  0
 10 45  1  0
  9 45  1  0
  3 46  1  0
  3 47  1  0
  5 48  1  0
  6 49  1  0
  7 50  1  0
  8 51  1  0
 10 52  1  6
 12 53  1  6
 13 54  1  0
 14 55  1  6
 15 56  1  0
 16 57  1  6
 17 58  1  0
 17 59  1  0
 20 60  1  0
 24 61  1  0
 27 62  1  0
 27 63  1  0
 28 64  1  6
 29 65  1  1
 30 66  1  0
 31 67  1  1
 32 68  1  0
 33 69  1  1
 39 70  1  0
 41 71  1  0
 44 72  1  0
 44 73  1  0
 45 74  1  0
M  CHG  1  35   1
M  END
