7NML_I7B_B_201
     RDKit          3D

 24 24  0  0  0  0  0  0  0  0999 V2000
   -1.6057    1.0975   -1.3402 C   0  0  0  0  0  0  0  0  0  0  0  0
   -1.5959    0.0233   -0.4360 C   0  0  0  0  0  0  0  0  0  0  0  0
   -1.0246    0.2052    0.8464 C   0  0  0  0  0  0  0  0  0  0  0  0
   -0.5035    1.4596    1.1940 C   0  0  0  0  0  0  0  0  0  0  0  0
   -0.5256    2.5264    0.2923 C   0  0  0  0  0  0  0  0  0  0  0  0
   -1.0718    2.3463   -0.9923 C   0  0  0  0  0  0  0  0  0  0  0  0
   -2.2975   -1.5211   -0.9518 S   0  0  2  0  0  6  0  0  0  0  0  0
   -2.0058   -2.7337    0.2471 N   0  0  0  0  0  0  0  0  0  0  0  0
   -1.6703   -1.9636   -2.2445 O   0  0  0  0  0  0  0  0  0  0  0  0
   -3.7754   -1.3681   -1.1789 O   0  0  0  0  0  0  0  0  0  0  0  0
   -1.1241    3.6667   -2.1707 S   0  0  2  0  0  6  0  0  0  0  0  0
    0.1958    3.5181   -3.2780 N   0  0  0  0  0  0  0  0  0  0  0  0
   -1.0202    4.9907   -1.4664 O   0  0  0  0  0  0  0  0  0  0  0  0
   -2.4248    3.6320   -2.9228 O   0  0  0  0  0  0  0  0  0  0  0  0
   -0.9547   -0.8555    1.8101 N   0  0  0  0  0  0  0  0  0  0  0  0
    0.1403    4.0681    0.8212 Cl  0  0  0  0  0  0  0  0  0  0  0  0
   -2.0343    0.9618   -2.3238 H   0  0  0  0  0  0  0  0  0  0  0  0
   -0.0728    1.6074    2.1770 H   0  0  0  0  0  0  0  0  0  0  0  0
   -2.3448   -2.3631    1.1619 H   0  0  0  0  0  0  0  0  0  0  0  0
   -0.9694   -2.8337    0.3318 H   0  0  0  0  0  0  0  0  0  0  0  0
    1.0678    3.4564   -2.7062 H   0  0  0  0  0  0  0  0  0  0  0  0
    0.0907    2.6016   -3.7669 H   0  0  0  0  0  0  0  0  0  0  0  0
   -0.5539   -0.6804    2.7586 H   0  0  0  0  0  0  0  0  0  0  0  0
   -1.2614   -1.8288    1.6044 H   0  0  0  0  0  0  0  0  0  0  0  0
  1  2  4  0
  2  3  4  0
  3  4  4  0
  4  5  4  0
  1  6  4  0
  5  6  4  0
  2  7  1  0
  7  8  1  6
  7  9  2  0
  7 10  2  0
  6 11  1  0
 11 12  1  1
 11 13  2  0
 11 14  2  0
  3 15  1  0
  5 16  1  0
  1 17  1  0
  4 18  1  0
  8 19  1  0
  8 20  1  0
 12 21  1  0
 12 22  1  0
 15 23  1  0
 15 24  1  0
M  END
