7L00_XCJ_A_402
     RDKit          3D

 41 44  0  0  0  0  0  0  0  0999 V2000
  -23.8489    1.7771   20.7165 C   0  0  2  0  0  0  0  0  0  0  0  0
  -26.3486    3.0503   21.3978 C   0  0  0  0  0  0  0  0  0  0  0  0
  -27.0630    3.3872   20.2329 C   0  0  0  0  0  0  0  0  0  0  0  0
  -27.7535    4.5956   20.2103 C   0  0  0  0  0  0  0  0  0  0  0  0
  -27.7526    5.4655   21.2882 C   0  0  0  0  0  0  0  0  0  0  0  0
  -27.0445    5.1494   22.4478 C   0  0  0  0  0  0  0  0  0  0  0  0
  -26.3373    3.9361   22.4988 C   0  0  0  0  0  0  0  0  0  0  0  0
  -29.0438    6.6376   19.8864 C   0  0  0  0  0  0  0  0  0  0  0  0
  -30.3527    7.9370   18.1229 C   0  0  0  0  0  0  0  0  0  0  0  0
  -31.1994    9.1324   17.8115 C   0  0  1  0  0  0  0  0  0  0  0  0
  -32.3210    9.2332   18.7969 C   0  0  0  0  0  0  0  0  0  0  0  0
  -32.1462    9.6820   20.1051 C   0  0  0  0  0  0  0  0  0  0  0  0
  -34.4213    8.9623   19.5379 C   0  0  0  0  0  0  0  0  0  0  0  0
  -36.3108    7.4214   19.0914 C   0  0  0  0  0  0  0  0  0  0  0  0
  -37.6881    7.4464   19.1745 C   0  0  0  0  0  0  0  0  0  0  0  0
  -38.0331    8.7010   19.6391 C   0  0  0  0  0  0  0  0  0  0  0  0
  -36.8529    9.3930   19.8211 C   0  0  0  0  0  0  0  0  0  0  0  0
  -28.4704    6.6046   21.1147 N   0  0  0  0  0  0  0  0  0  0  0  0
  -29.8624    7.7372   19.4593 N   0  0  0  0  0  0  0  0  0  0  0  0
  -35.8096    8.6083   19.4860 N   0  0  0  0  0  0  0  0  0  0  0  0
  -33.5822    8.8254   18.4882 N   0  0  0  0  0  0  0  0  0  0  0  0
  -30.1130    7.1012   17.2108 O   0  0  0  0  0  0  0  0  0  0  0  0
  -25.2659    1.1220   22.9007 O   0  0  0  0  0  0  0  0  0  0  0  0
  -26.1910    0.4644   20.7374 O   0  0  0  0  0  0  0  0  0  0  0  0
  -25.4427    1.5433   21.4689 S   0  0  2  0  0  6  0  0  0  0  0  0
  -28.6802    5.2503   18.9749 S   0  0  0  0  0  0  0  0  0  0  0  0
  -33.6301    9.5791   20.8903 S   0  0  0  0  0  0  0  0  0  0  0  0
  -23.2397    2.4602   21.3438 H   0  0  0  0  0  0  0  0  0  0  0  0
  -23.9768    2.2203   19.7075 H   0  0  0  0  0  0  0  0  0  0  0  0
  -23.3325    0.7992   20.6273 H   0  0  0  0  0  0  0  0  0  0  0  0
  -27.0769    2.7311   19.3720 H   0  0  0  0  0  0  0  0  0  0  0  0
  -27.0356    5.8262   23.2926 H   0  0  0  0  0  0  0  0  0  0  0  0
  -25.7790    3.6881   23.3924 H   0  0  0  0  0  0  0  0  0  0  0  0
  -30.5776   10.0531   17.8433 H   0  0  0  0  0  0  0  0  0  0  0  0
  -31.6147    9.0454   16.7839 H   0  0  0  0  0  0  0  0  0  0  0  0
  -31.2189   10.0285   20.5419 H   0  0  0  0  0  0  0  0  0  0  0  0
  -35.7149    6.5801   18.7609 H   0  0  0  0  0  0  0  0  0  0  0  0
  -38.3655    6.6405   18.9253 H   0  0  0  0  0  0  0  0  0  0  0  0
  -39.0332    9.0692   19.8241 H   0  0  0  0  0  0  0  0  0  0  0  0
  -36.7707   10.4112   20.1792 H   0  0  0  0  0  0  0  0  0  0  0  0
  -30.1225    8.4438   20.1838 H   0  0  0  0  0  0  0  0  0  0  0  0
  2  3  2  0
  3  4  1  0
  4  5  2  0
  5  6  1  0
  2  7  1  0
  6  7  2  0
  9 10  1  0
 10 11  1  0
 11 12  2  0
 14 15  2  0
 15 16  1  0
 16 17  2  0
  8 18  2  0
  5 18  1  0
  9 19  1  0
  8 19  1  0
 14 20  1  0
 17 20  1  0
 13 20  1  0
 13 21  2  0
 11 21  1  0
  9 22  2  0
  1 25  1  0
 25  2  1  1
 23 25  2  0
 24 25  2  0
  8 26  1  0
  4 26  1  0
 13 27  1  0
 12 27  1  0
  1 28  1  1
  1 29  1  0
  1 30  1  0
  3 31  1  0
  6 32  1  0
  7 33  1  0
 10 34  1  6
 10 35  1  0
 12 36  1  0
 14 37  1  0
 15 38  1  0
 16 39  1  0
 17 40  1  0
 19 41  1  0
M  END
