8DW5_FQ7_A_201
     RDKit          3D

 27 28  0  0  0  0  0  0  0  0999 V2000
   20.0123    8.1549    2.0117 C   0  0  0  0  0  0  0  0  0  0  0  0
   18.8319    8.7170    1.5741 C   0  0  0  0  0  0  0  0  0  0  0  0
   18.8318   10.0692    1.3140 C   0  0  0  0  0  0  0  0  0  0  0  0
   22.4707   10.8960    2.1736 N   0  0  0  0  0  0  0  0  0  0  0  0
   21.0761   12.9205    1.3491 O   0  0  0  0  0  0  0  0  0  0  0  0
   20.0052   12.2985    1.1876 C   0  0  0  0  0  0  0  0  0  0  0  0
   18.9495   12.8927    0.8122 O   0  0  0  0  0  0  0  0  0  0  0  0
   19.9885   10.8188    1.4900 C   0  0  0  0  0  0  0  0  0  0  0  0
   21.1645    8.9197    2.1858 C   0  0  0  0  0  0  0  0  0  0  0  0
   21.1664   10.2649    1.9170 C   0  0  0  0  0  0  0  0  0  0  0  0
   23.6582   10.3965    2.7921 C   0  0  0  0  0  0  0  0  0  0  0  0
   24.8239   11.1714    2.9113 C   0  0  0  0  0  0  0  0  0  0  0  0
   25.9161   10.6122    3.5145 C   0  0  0  0  0  0  0  0  0  0  0  0
   27.4178   11.5185    3.7536 Cl  0  0  0  0  0  0  0  0  0  0  0  0
   25.9132    9.2955    3.9325 C   0  0  0  0  0  0  0  0  0  0  0  0
   24.7522    8.5532    3.7542 C   0  0  0  0  0  0  0  0  0  0  0  0
   24.7030    6.8828    4.2818 Cl  0  0  0  0  0  0  0  0  0  0  0  0
   23.6314    9.0780    3.2025 C   0  0  0  0  0  0  0  0  0  0  0  0
   20.0436    7.1436    2.2151 H   0  0  0  0  0  0  0  0  0  0  0  0
   17.9814    8.1466    1.4464 H   0  0  0  0  0  0  0  0  0  0  0  0
   17.9676   10.5286    0.9865 H   0  0  0  0  0  0  0  0  0  0  0  0
   22.5371   11.8282    1.8641 H   0  0  0  0  0  0  0  0  0  0  0  0
   21.8458   12.4640    1.6269 H   0  0  0  0  0  0  0  0  0  0  0  0
   22.0290    8.4674    2.5219 H   0  0  0  0  0  0  0  0  0  0  0  0
   24.8551   12.1385    2.5527 H   0  0  0  0  0  0  0  0  0  0  0  0
   26.7504    8.8749    4.3653 H   0  0  0  0  0  0  0  0  0  0  0  0
   22.7790    8.5068    3.0917 H   0  0  0  0  0  0  0  0  0  0  0  0
  1  2  4  0
  2  3  4  0
  5  6  1  0
  6  7  2  0
  6  8  1  0
  3  8  4  0
  1  9  4  0
  9 10  4  0
  4 10  1  0
  8 10  4  0
  4 11  1  0
 11 12  4  0
 12 13  4  0
 13 14  1  0
 13 15  4  0
 15 16  4  0
 16 17  1  0
 16 18  4  0
 11 18  4  0
  1 19  1  0
  2 20  1  0
  3 21  1  0
  4 22  1  0
  5 23  1  0
  9 24  1  0
 12 25  1  0
 15 26  1  0
 18 27  1  0
M  END
