1SJ0_E4D_A_600
     RDKit          3D

 33 37  0  0  0  0  0  0  0  0999 V2000
   23.1052    7.3272   24.2264 C   0  0  2  0  0  0  0  0  0  0  0  0
   22.2396    6.4332   23.3372 C   0  0  1  0  0  0  0  0  0  0  0  0
   21.1629    7.2010   22.7816 O   0  0  0  0  0  0  0  0  0  0  0  0
   21.3618    8.2955   22.0274 C   0  0  0  0  0  0  0  0  0  0  0  0
   20.4899    8.5373   20.9775 C   0  0  0  0  0  0  0  0  0  0  0  0
   20.6942    9.5945   20.1020 C   0  0  0  0  0  0  0  0  0  0  0  0
   21.6584   10.5621   20.4271 C   0  0  0  0  0  0  0  0  0  0  0  0
   21.7629   11.6403   19.6421 O   0  0  0  0  0  0  0  0  0  0  0  0
   22.5413   10.3218   21.4927 C   0  0  0  0  0  0  0  0  0  0  0  0
   22.4450    9.1837   22.2772 C   0  0  0  0  0  0  0  0  0  0  0  0
   23.4348    8.8566   23.3617 S   0  0  0  0  0  0  0  0  0  0  0  0
   24.2354    6.4990   24.7916 C   0  0  0  0  0  0  0  0  0  0  0  0
   25.5878    6.6624   24.4840 C   0  0  0  0  0  0  0  0  0  0  0  0
   26.5505    5.8310   25.0723 C   0  0  0  0  0  0  0  0  0  0  0  0
   26.1553    4.8374   25.9829 C   0  0  0  0  0  0  0  0  0  0  0  0
   27.0713    4.0128   26.5253 O   0  0  0  0  0  0  0  0  0  0  0  0
   24.8003    4.6522   26.2867 C   0  0  0  0  0  0  0  0  0  0  0  0
   23.8524    5.5063   25.7075 C   0  0  0  0  0  0  0  0  0  0  0  0
   22.9413    5.6964   22.1991 C   0  0  0  0  0  0  0  0  0  0  0  0
   23.2145    4.3475   22.4557 C   0  0  0  0  0  0  0  0  0  0  0  0
   23.8354    3.5327   21.5063 C   0  0  0  0  0  0  0  0  0  0  0  0
   24.2420    4.0902   20.2703 C   0  0  0  0  0  0  0  0  0  0  0  0
   23.9322    5.4087   19.9865 C   0  0  0  0  0  0  0  0  0  0  0  0
   23.3231    6.2362   20.9685 C   0  0  0  0  0  0  0  0  0  0  0  0
   24.8837    3.3384   19.3380 O   0  0  0  0  0  0  0  0  0  0  0  0
   24.7839    1.9183   19.1330 C   0  0  0  0  0  0  0  0  0  0  0  0
   25.3991    1.4063   17.8110 C   0  0  0  0  0  0  0  0  0  0  0  0
   25.4367   -0.0289   17.4434 N   0  0  0  0  0  0  0  0  0  0  0  0
   24.4057   -0.5310   16.5508 C   0  0  0  0  0  0  0  0  0  0  0  0
   24.2446   -2.0674   16.5583 C   0  0  0  0  0  0  0  0  0  0  0  0
   25.5925   -2.7918   16.3589 C   0  0  0  0  0  0  0  0  0  0  0  0
   26.5832   -2.2202   17.4069 C   0  0  0  0  0  0  0  0  0  0  0  0
   26.7355   -0.6817   17.2525 C   0  0  0  0  0  0  0  0  0  0  0  0
  1  2  1  0
  2  3  1  0
  3  4  1  0
  4  5  2  0
  5  6  1  0
  6  7  2  0
  7  8  1  0
  7  9  1  0
  4 10  1  0
  9 10  2  0
  1 11  1  0
 10 11  1  0
  1 12  1  6
 12 13  2  0
 13 14  1  0
 14 15  2  0
 15 16  1  0
 15 17  1  0
 12 18  1  0
 17 18  2  0
  2 19  1  6
 19 20  2  0
 20 21  1  0
 21 22  2  0
 22 23  1  0
 19 24  1  0
 23 24  2  0
 22 25  1  0
 25 26  1  0
 26 27  1  0
 27 28  1  0
 28 29  1  0
 29 30  1  0
 30 31  1  0
 31 32  1  0
 28 33  1  0
 32 33  1  0
M  END
