8AY3_OE3_A_501
     RDKit          3D

 25 27  0  0  0  0  0  0  0  0999 V2000
   -2.1727   16.6368   31.4764 C   0  0  0  0  0  0  0  0  0  0  0  0
    1.8554   16.6661   30.4118 N   0  0  0  0  0  0  0  0  0  0  0  0
   -0.1552   17.7918   30.9315 C   0  0  0  0  0  0  0  0  0  0  0  0
    0.5489   16.6175   30.7578 C   0  0  0  0  0  0  0  0  0  0  0  0
   -0.1371   15.4432   30.9511 C   0  0  0  0  0  0  0  0  0  0  0  0
   -1.4701   15.4571   31.3031 C   0  0  0  0  0  0  0  0  0  0  0  0
    0.5057   14.2237   30.7936 C   0  0  0  0  0  0  0  0  0  0  0  0
    2.5692   17.9114   30.2116 C   0  0  0  0  0  0  0  0  0  0  0  0
   -3.6230   16.6192   31.8599 C   0  0  0  0  0  0  0  0  0  0  0  0
   -5.9710   19.4325   35.6903 C   0  0  0  0  0  0  0  0  0  0  0  0
   -0.1677   12.9308   30.9848 C   0  0  0  0  0  0  0  0  0  0  0  0
   -5.9327   17.4886   34.3029 C   0  0  0  0  0  0  0  0  0  0  0  0
   -5.3859   18.2168   35.3448 C   0  0  0  0  0  0  0  0  0  0  0  0
   -7.0857   19.9181   35.0086 C   0  0  0  0  0  0  0  0  0  0  0  0
   -7.6272   19.1890   33.9711 C   0  0  0  0  0  0  0  0  0  0  0  0
   -7.0360   17.9885   33.6423 C   0  0  0  0  0  0  0  0  0  0  0  0
    3.1799   18.4279   31.4993 C   0  0  0  0  0  0  0  0  0  0  0  0
   -1.4934   17.8223   31.2846 C   0  0  0  0  0  0  0  0  0  0  0  0
    1.8389   14.2667   30.4405 C   0  0  0  0  0  0  0  0  0  0  0  0
    2.4665   15.4638   30.2624 C   0  0  0  0  0  0  0  0  0  0  0  0
   -3.6697   16.2115   33.2450 N   0  0  0  0  0  0  0  0  0  0  0  0
   -6.1180   15.4680   32.5892 O   0  0  0  0  0  0  0  0  0  0  0  0
   -5.3911   14.9420   34.8442 O   0  0  0  0  0  0  0  0  0  0  0  0
    3.6989   15.4189   29.9369 O   0  0  0  0  0  0  0  0  0  0  0  0
   -5.2980   15.9575   33.7723 S   0  0  2  0  0  6  0  0  0  0  0  0
  2  4  1  0
  3  4  2  0
  4  5  1  0
  5  6  2  0
  1  6  1  0
  5  7  1  0
  8  2  1  6
  1  9  1  0
 11  7  1  6
 10 13  2  0
 12 13  1  0
 10 14  1  0
 14 15  2  0
 12 16  2  0
 15 16  1  0
 17  8  1  1
  3 18  1  0
  1 18  2  0
  7 19  2  0
  2 20  1  0
 19 20  1  0
  9 21  1  6
 20 24  2  0
 25 21  1  6
 23 25  2  0
 12 25  1  0
 22 25  2  0
M  END
$$$$
