7ZU2_DHT_A_1001
     RDKit          3D

 21 24  0  0  0  0  0  0  0  0999 V2000
  -20.2104   -3.5568  -28.5653 C   0  0  0  0  0  0  0  0  0  0  0  0
  -20.4034   -4.7954  -29.3771 C   0  0  0  0  0  0  0  0  0  0  0  0
  -21.0881   -4.5623  -30.6649 C   0  0  0  0  0  0  0  0  0  0  0  0
  -21.1457   -5.4943  -31.4494 O   0  0  0  0  0  0  0  0  0  0  0  0
  -21.7080   -3.2860  -31.0739 C   0  0  0  0  0  0  0  0  0  0  0  0
  -21.4059   -2.1315  -30.1955 C   0  0  2  0  0  0  0  0  0  0  0  0
  -21.2147   -0.8910  -31.0260 C   0  0  0  0  0  0  0  0  0  0  0  0
  -20.9865    0.3508  -30.2097 C   0  0  0  0  0  0  0  0  0  0  0  0
  -19.9392    0.1973  -29.1609 C   0  0  2  0  0  0  0  0  0  0  0  0
  -20.1248   -1.1248  -28.4365 C   0  0  1  0  0  0  0  0  0  0  0  0
  -20.1422   -2.2904  -29.3581 C   0  0  1  0  0  0  0  0  0  0  0  0
  -19.1355   -1.2835  -27.3085 C   0  0  0  0  0  0  0  0  0  0  0  0
  -19.1609   -0.1230  -26.3802 C   0  0  0  0  0  0  0  0  0  0  0  0
  -19.0203    1.1833  -27.0930 C   0  0  1  0  0  0  0  0  0  0  0  0
  -20.1456    1.2418  -28.1090 C   0  0  1  0  0  0  0  0  0  0  0  0
  -20.1108    2.6533  -28.5474 C   0  0  0  0  0  0  0  0  0  0  0  0
  -20.0159    3.3789  -27.2083 C   0  0  0  0  0  0  0  0  0  0  0  0
  -19.3630    2.3713  -26.2541 C   0  0  2  0  0  0  0  0  0  0  0  0
  -18.2310    3.0003  -25.6991 O   0  0  0  0  0  0  0  0  0  0  0  0
  -17.6571    1.2814  -27.7017 C   0  0  0  0  0  0  0  0  0  0  0  0
  -18.9388   -2.3832  -30.2541 C   0  0  0  0  0  0  0  0  0  0  0  0
  1  2  1  0
  2  3  1  0
  3  4  2  0
  3  5  1  0
  6  5  1  6
  6  7  1  0
  7  8  1  0
  9  8  1  6
  9 10  1  0
  1 11  1  0
  6 11  1  0
 10 11  1  0
 10 12  1  1
 12 13  1  0
 13 14  1  0
  9 15  1  0
 14 15  1  0
 15 16  1  6
 16 17  1  0
 14 18  1  0
 17 18  1  0
 18 19  1  6
 14 20  1  6
 11 21  1  6
M  END
$$$$
