7PRM_81I_A_401
     RDKit          3D

 32 36  0  0  0  0  0  0  0  0999 V2000
  128.1494   25.6257   -2.9359 C   0  0  0  0  0  0  0  0  0  0  0  0
  127.3164   24.5212   -2.9708 C   0  0  0  0  0  0  0  0  0  0  0  0
  127.0732   23.8725   -4.1776 C   0  0  0  0  0  0  0  0  0  0  0  0
  126.2275   22.7237   -4.2415 N   0  0  0  0  0  0  0  0  0  0  0  0
  126.6689   21.4472   -4.1733 C   0  0  0  0  0  0  0  0  0  0  0  0
  127.8349   21.1123   -3.9957 O   0  0  0  0  0  0  0  0  0  0  0  0
  125.4959   20.5357   -4.3952 C   0  0  0  0  0  0  0  0  0  0  0  0
  124.4466   21.4292   -5.0603 C   0  0  1  0  0  0  0  0  0  0  0  0
  123.0529   20.9981   -4.8037 N   0  0  0  0  0  0  0  0  0  0  0  0
  122.0650   21.8315   -5.5088 C   0  0  0  0  0  0  0  0  0  0  0  0
  120.6261   21.4193   -5.1694 C   0  0  0  0  0  0  0  0  0  0  0  0
  120.4297   19.9685   -5.3458 N   0  0  0  0  0  0  0  0  0  0  0  0
  119.3409   19.3512   -5.8642 C   0  0  0  0  0  0  0  0  0  0  0  0
  119.4435   18.4903   -6.7390 O   0  0  0  0  0  0  0  0  0  0  0  0
  117.9462   19.6925   -5.4315 C   0  0  0  0  0  0  0  0  0  0  0  0
  116.9468   18.7650   -5.2630 O   0  0  0  0  0  0  0  0  0  0  0  0
  115.8252   19.4662   -4.8660 C   0  0  0  0  0  0  0  0  0  0  0  0
  116.1112   20.7479   -4.6932 C   0  0  0  0  0  0  0  0  0  0  0  0
  117.5091   20.9102   -5.0423 C   0  0  0  0  0  0  0  0  0  0  0  0
  121.4640   19.1509   -4.6960 C   0  0  0  0  0  0  0  0  0  0  0  0
  122.8301   19.5864   -5.1569 C   0  0  0  0  0  0  0  0  0  0  0  0
  124.7844   22.8079   -4.4849 C   0  0  0  0  0  0  0  0  0  0  0  0
  127.6518   24.3682   -5.3435 C   0  0  0  0  0  0  0  0  0  0  0  0
  128.4605   25.4859   -5.2995 C   0  0  0  0  0  0  0  0  0  0  0  0
  128.7402   26.1264   -4.0962 C   0  0  0  0  0  0  0  0  0  0  0  0
  129.6246   27.3138   -4.0574 C   0  0  0  0  0  0  0  0  0  0  0  0
  130.4223   27.6527   -5.1500 C   0  0  0  0  0  0  0  0  0  0  0  0
  131.2584   28.7538   -5.1144 C   0  0  0  0  0  0  0  0  0  0  0  0
  131.2779   29.5152   -3.9769 C   0  0  0  0  0  0  0  0  0  0  0  0
  130.5433   29.2081   -2.8666 C   0  0  0  0  0  0  0  0  0  0  0  0
  129.7324   28.0881   -2.9058 C   0  0  0  0  0  0  0  0  0  0  0  0
  132.0920   30.6072   -3.9344 F   0  0  0  0  0  0  0  0  0  0  0  0
  1  2  2  0
  2  3  1  0
  3  4  1  0
  4  5  1  0
  5  6  2  0
  5  7  1  0
  7  8  1  0
  8  9  1  1
  9 10  1  0
 10 11  1  0
 11 12  1  0
 12 13  1  0
 13 14  2  0
 13 15  1  0
 15 16  1  0
 16 17  1  0
 17 18  2  0
 18 19  1  0
 15 19  2  0
 12 20  1  0
 20 21  1  0
  9 21  1  0
  8 22  1  0
  4 22  1  0
  3 23  2  0
 23 24  1  0
  1 25  1  0
 24 25  2  0
 25 26  1  0
 26 27  2  0
 27 28  1  0
 28 29  2  0
 29 30  1  0
 30 31  2  0
 26 31  1  0
 29 32  1  0
M  END
