7REE_4LY_A_1201
     RDKit          3D

 42 47  0  0  0  0  0  0  0  0999 V2000
   13.0172  -17.3448    6.0234 C   0  0  0  0  0  0  0  0  0  0  0  0
   10.6085  -19.4353    6.2352 C   0  0  0  0  0  0  0  0  0  0  0  0
   11.6632  -20.3671    6.4599 C   0  0  0  0  0  0  0  0  0  0  0  0
    6.6195  -16.4259    5.2031 C   0  0  0  0  0  0  0  0  0  0  0  0
    5.2702  -16.1680    5.1791 C   0  0  0  0  0  0  0  0  0  0  0  0
    5.1325  -12.6732    3.7031 C   0  0  0  0  0  0  0  0  0  0  0  0
    4.0097  -10.4951    4.1844 C   0  0  0  0  0  0  0  0  0  0  0  0
   15.6061  -14.9207    5.3488 C   0  0  0  0  0  0  0  0  0  0  0  0
   14.9703  -15.8859    6.1639 C   0  0  2  0  0  0  0  0  0  0  0  0
   15.1057  -15.3102    7.6032 C   0  0  0  0  0  0  0  0  0  0  0  0
   13.9866  -15.6475    8.5440 C   0  0  0  0  0  0  0  0  0  0  0  0
   11.6625  -17.1028    5.8271 C   0  0  0  0  0  0  0  0  0  0  0  0
   10.4896  -18.0709    5.9103 C   0  0  0  0  0  0  0  0  0  0  0  0
    9.4280  -20.1461    6.3634 C   0  0  0  0  0  0  0  0  0  0  0  0
   11.0591  -21.5599    6.7154 C   0  0  0  0  0  0  0  0  0  0  0  0
    8.2194  -18.2798    5.8881 C   0  0  0  0  0  0  0  0  0  0  0  0
    4.8206  -14.9634    4.6936 C   0  0  0  0  0  0  0  0  0  0  0  0
    5.6825  -14.0147    4.2143 C   0  0  0  0  0  0  0  0  0  0  0  0
    4.5708  -11.7225    4.7141 C   0  0  0  0  0  0  0  0  0  0  0  0
    4.2801   -8.9286    2.4805 C   0  0  0  0  0  0  0  0  0  0  0  0
    4.7364  -10.8553    1.9477 C   0  0  0  0  0  0  0  0  0  0  0  0
    5.3697  -12.3302    2.4165 C   0  0  0  0  0  0  0  0  0  0  0  0
    7.0290  -14.2755    4.2404 C   0  0  0  0  0  0  0  0  0  0  0  0
    7.5280  -15.4852    4.7247 C   0  0  0  0  0  0  0  0  0  0  0  0
   11.4517  -15.7420    5.7393 C   0  0  0  0  0  0  0  0  0  0  0  0
   15.9170  -16.9463    5.9381 C   0  0  0  0  0  0  0  0  0  0  0  0
   19.0104  -15.5868    3.4725 C   0  0  0  0  0  0  0  0  0  0  0  0
   18.9494  -14.0871    3.6171 C   0  0  0  0  0  0  0  0  0  0  0  0
    3.4894  -14.7349    4.6989 F   0  0  0  0  0  0  0  0  0  0  0  0
    7.9677  -13.3953    3.7783 F   0  0  0  0  0  0  0  0  0  0  0  0
   16.5903  -15.9698    5.0172 N   0  0  0  0  0  0  0  0  0  0  0  0
   13.1018  -16.0052    9.1592 N   0  0  0  0  0  0  0  0  0  0  0  0
   13.6131  -16.1694    5.9970 N   0  0  0  0  0  0  0  0  0  0  0  0
    9.7148  -21.4247    6.6712 N   0  0  0  0  0  0  0  0  0  0  0  0
    8.2402  -19.5572    6.1949 N   0  0  0  0  0  0  0  0  0  0  0  0
    6.9233  -17.7169    5.7348 N   0  0  0  0  0  0  0  0  0  0  0  0
    4.7431  -10.0264    2.8884 N   0  0  0  0  0  0  0  0  0  0  0  0
    9.2830  -17.5305    5.7715 N   0  0  0  0  0  0  0  0  0  0  0  0
   12.6966  -15.1861    5.8224 N   0  0  0  0  0  0  0  0  0  0  0  0
   17.2810  -17.6403    3.2069 O   0  0  0  0  0  0  0  0  0  0  0  0
   16.5256  -15.4917    2.5415 O   0  0  0  0  0  0  0  0  0  0  0  0
   17.2957  -16.2284    3.5036 S   0  0  2  0  0  0  0  0  0  0  0  0
  2  3  1  0
  4  5  2  0
  8  9  1  0
  9 10  1  1
 10 11  1  0
  1 12  2  0
 12 13  1  0
  2 13  2  0
  2 14  1  0
  3 15  2  0
  5 17  1  0
  6 18  1  0
 17 18  2  0
  6 19  1  0
  7 19  1  0
 21 22  1  0
  6 22  2  0
 18 23  1  0
 23 24  2  0
  4 24  1  0
 12 25  1  0
  9 26  1  0
 27 28  1  0
 17 29  1  0
 23 30  1  0
  8 31  1  0
 26 31  1  0
 11 32  3  0
  9 33  1  0
  1 33  1  0
 15 34  1  0
 14 34  1  0
 16 35  1  0
 14 35  2  0
 16 36  1  0
  4 36  1  0
 21 37  1  0
 20 37  1  0
  7 37  1  0
 13 38  1  0
 16 38  2  0
 25 39  2  0
 33 39  1  0
 41 42  2  0
 40 42  2  0
 42 27  1  1
 31 42  1  0
M  END
