7LZD_YHY_A_1805
     RDKit          3D

 29 32  0  0  0  0  0  0  0  0999 V2000
  -11.1980   35.2840    9.0820 C   0  0  0  0  0  0  0  0  0  0  0  0
   -9.9190   34.8980    9.7430 N   0  0  0  0  0  0  0  0  0  0  0  0
   -9.9880   35.2210   11.1950 C   0  0  0  0  0  0  0  0  0  0  0  0
   -9.4860   33.4890    9.4540 C   0  0  0  0  0  0  0  0  0  0  0  0
   -8.2920   33.0870   10.3270 C   0  0  0  0  0  0  0  0  0  0  0  0
   -7.7020   31.7310    9.9350 C   0  0  0  0  0  0  0  0  0  0  0  0
   -8.6740   31.8970    7.6650 C   0  0  0  0  0  0  0  0  0  0  0  0
   -7.5370   31.4460    8.4950 N   0  0  0  0  0  0  0  0  0  0  0  0
   -9.0300   33.3490    7.9960 C   0  0  0  0  0  0  0  0  0  0  0  0
   -6.9700   30.1650    8.2030 C   0  0  0  0  0  0  0  0  0  0  0  0
   -6.0040   29.5930    9.0670 C   0  0  0  0  0  0  0  0  0  0  0  0
   -5.3980   28.3660    8.8080 C   0  0  0  0  0  0  0  0  0  0  0  0
   -5.7600   27.6670    7.6670 C   0  0  0  0  0  0  0  0  0  0  0  0
   -6.7240   28.1880    6.8290 C   0  0  0  0  0  0  0  0  0  0  0  0
   -7.3160   29.4110    7.0740 C   0  0  0  0  0  0  0  0  0  0  0  0
   -4.4290   27.9370    9.7180 N   0  0  0  0  0  0  0  0  0  0  0  0
   -4.2230   26.6480   10.0510 C   0  0  0  0  0  0  0  0  0  0  0  0
   -4.8780   25.7180    9.5620 O   0  0  0  0  0  0  0  0  0  0  0  0
   -3.1790   26.3260   11.0190 C   0  0  0  0  0  0  0  0  0  0  0  0
   -2.4980   27.1480   11.8630 C   0  0  0  0  0  0  0  0  0  0  0  0
   -1.6040   26.3400   12.6010 C   0  0  0  0  0  0  0  0  0  0  0  0
   -1.7870   25.0140   12.1600 C   0  0  0  0  0  0  0  0  0  0  0  0
   -1.0520   23.9610   12.7030 C   0  0  0  0  0  0  0  0  0  0  0  0
   -1.3030   22.5630   12.1680 C   0  0  0  0  0  0  0  0  0  0  0  0
   -0.1180   24.2220   13.6640 C   0  0  0  0  0  0  0  0  0  0  0  0
    0.0710   25.5460   14.1070 C   0  0  0  0  0  0  0  0  0  0  0  0
   -0.6520   26.6010   13.5850 C   0  0  0  0  0  0  0  0  0  0  0  0
   -0.4570   27.8870   14.0210 F   0  0  0  0  0  0  0  0  0  0  0  0
   -2.7630   25.0280   11.2120 N   0  0  0  0  0  0  0  0  0  0  0  0
  1  2  1  0
  2  3  1  0
  2  4  1  0
  4  5  1  0
  5  6  1  0
  7  8  1  0
  6  8  1  0
  7  9  1  0
  4  9  1  0
  8 10  1  0
 10 11  2  0
 11 12  1  0
 12 13  2  0
 13 14  1  0
 14 15  2  0
 10 15  1  0
 12 16  1  0
 16 17  1  0
 17 18  2  0
 17 19  1  0
 19 20  2  0
 20 21  1  0
 21 22  2  0
 22 23  1  0
 23 24  1  0
 23 25  2  0
 25 26  1  0
 21 27  1  0
 26 27  2  0
 27 28  1  0
 19 29  1  0
 22 29  1  0
M  END
$$$$
