7SED_8VD_A_401
     RDKit          3D

 30 31  0  0  0  0  0  0  0  0999 V2000
   22.3093   33.4075    9.3942 C   0  0  0  0  0  0  0  0  0  0  0  0
   20.4894   28.7794    8.1969 N   0  0  0  0  0  0  0  0  0  0  0  0
   20.4415   30.3376   10.1200 C   0  0  0  0  0  0  0  0  0  0  0  0
   21.9024   30.8066    8.1612 C   0  0  0  0  0  0  0  0  0  0  0  0
   21.8675   32.3302   10.1112 N   0  0  0  0  0  0  0  0  0  0  0  0
   21.7928   37.0799    8.7059 C   0  0  1  0  0  0  0  0  0  0  0  0
   22.2474   35.6468    8.6263 C   0  0  0  0  0  0  0  0  0  0  0  0
   21.7621   34.6827    9.5181 C   0  0  0  0  0  0  0  0  0  0  0  0
   21.7629   30.9380    9.6649 C   0  0  1  0  0  0  0  0  0  0  0  0
   21.7758   29.3490    7.7431 C   0  0  0  0  0  0  0  0  0  0  0  0
   20.3239   28.8913    9.6635 C   0  0  0  0  0  0  0  0  0  0  0  0
   23.6200   34.1565    7.6960 C   0  0  0  0  0  0  0  0  0  0  0  0
   21.3120   37.3882    9.8905 F   0  0  0  0  0  0  0  0  0  0  0  0
   22.7910   37.9284    8.5295 F   0  0  0  0  0  0  0  0  0  0  0  0
   20.8515   37.3586    7.8226 F   0  0  0  0  0  0  0  0  0  0  0  0
   23.2579   33.1445    8.4844 N   0  0  0  0  0  0  0  0  0  0  0  0
   23.1623   35.4122    7.6801 N   0  0  0  0  0  0  0  0  0  0  0  0
   20.4542   27.7941    7.9352 H   0  0  0  0  0  0  0  0  0  0  0  0
   19.6356   30.9046    9.7027 H   0  0  0  0  0  0  0  0  0  0  0  0
   20.4003   30.3659   11.1889 H   0  0  0  0  0  0  0  0  0  0  0  0
   22.8604   31.1773    7.8622 H   0  0  0  0  0  0  0  0  0  0  0  0
   21.1263   31.3723    7.6894 H   0  0  0  0  0  0  0  0  0  0  0  0
   21.5863   32.5111   11.0371 H   0  0  0  0  0  0  0  0  0  0  0  0
   21.0427   34.9033   10.2244 H   0  0  0  0  0  0  0  0  0  0  0  0
   22.5731   30.3998   10.1111 H   0  0  0  0  0  0  0  0  0  0  0  0
   22.5787   28.7894    8.1758 H   0  0  0  0  0  0  0  0  0  0  0  0
   21.8155   29.2952    6.6751 H   0  0  0  0  0  0  0  0  0  0  0  0
   19.3594   28.5166    9.9357 H   0  0  0  0  0  0  0  0  0  0  0  0
   21.0965   28.3220   10.1368 H   0  0  0  0  0  0  0  0  0  0  0  0
   24.3538   33.9410    7.0031 H   0  0  0  0  0  0  0  0  0  0  0  0
  1  5  1  0
  6  7  1  0
  7  8  4  0
  1  8  4  0
  5  9  1  0
  3  9  1  0
  4  9  1  0
  4 10  1  0
  2 10  1  0
  3 11  1  0
  2 11  1  0
  6 13  1  1
  6 14  1  0
  6 15  1  0
 12 16  4  0
  1 16  4  0
 12 17  4  0
  7 17  4  0
  2 18  1  0
  3 19  1  0
  3 20  1  0
  4 21  1  0
  4 22  1  0
  5 23  1  0
  8 24  1  0
  9 25  1  1
 10 26  1  0
 10 27  1  0
 11 28  1  0
 11 29  1  0
 12 30  1  0
M  END
