7V3S_5I9_A_1401
     RDKit          3D

 58 63  0  0  0  0  0  0  0  0999 V2000
    5.9036   -1.3665   -6.4745 N   0  0  0  0  0  0  0  0  0  0  0  0
    2.3877   -0.2030    1.7457 N   0  0  0  0  0  0  0  0  0  0  0  0
    8.3002   -1.6393   -6.0045 C   0  0  0  0  0  0  0  0  0  0  0  0
    6.9641   -1.8540   -5.6514 C   0  0  0  0  0  0  0  0  0  0  0  0
    6.6574   -2.5500   -4.4671 C   0  0  0  0  0  0  0  0  0  0  0  0
    4.5519   -1.5496   -6.0656 C   0  0  0  0  0  0  0  0  0  0  0  0
    4.2742   -2.2311   -4.8695 C   0  0  0  0  0  0  0  0  0  0  0  0
    1.9251   -1.7890   -5.2127 C   0  0  0  0  0  0  0  0  0  0  0  0
    1.9058   -1.0511   -1.9007 C   0  0  0  0  0  0  0  0  0  0  0  0
    2.4463   -0.8826    0.4761 C   0  0  0  0  0  0  0  0  0  0  0  0
    3.2580   -2.7589   -0.8389 C   0  0  0  0  0  0  0  0  0  0  0  0
    2.2199   -2.2910    4.9273 C   0  0  0  0  0  0  0  0  0  0  0  0
    0.4348   -0.6568    3.8946 C   0  0  0  0  0  0  0  0  0  0  0  0
    2.4234   -0.8984    5.4981 C   0  0  0  0  0  0  0  0  0  0  0  0
    0.4989    0.0730    7.1471 C   0  0  0  0  0  0  0  0  0  0  0  0
   -1.1080   -0.5737    8.8438 C   0  0  0  0  0  0  0  0  0  0  0  0
   -1.8192   -0.2988    6.5498 C   0  0  0  0  0  0  0  0  0  0  0  0
    7.6850   -3.0245   -3.6453 C   0  0  0  0  0  0  0  0  0  0  0  0
    2.9523   -2.3382   -4.4261 C   0  0  0  0  0  0  0  0  0  0  0  0
    2.6212   -2.2501   -1.9794 C   0  0  0  0  0  0  0  0  0  0  0  0
    1.8311   -0.3597   -0.6833 C   0  0  0  0  0  0  0  0  0  0  0  0
    3.1818   -2.0737    0.3759 C   0  0  0  0  0  0  0  0  0  0  0  0
    2.8646   -0.7291    2.9944 C   0  0  0  0  0  0  0  0  0  0  0  0
    1.8825   -1.0647    4.0861 C   0  0  1  0  0  0  0  0  0  0  0  0
    9.0141   -2.7916   -3.9935 C   0  0  0  0  0  0  0  0  0  0  0  0
   -0.5013    0.0079    6.1637 C   0  0  0  0  0  0  0  0  0  0  0  0
    0.1929   -0.2221    8.4780 C   0  0  0  0  0  0  0  0  0  0  0  0
   -2.1144   -0.5945    7.8856 C   0  0  0  0  0  0  0  0  0  0  0  0
    9.3216   -2.0997   -5.1702 C   0  0  0  0  0  0  0  0  0  0  0  0
    2.2464   -1.1420   -6.4084 C   0  0  0  0  0  0  0  0  0  0  0  0
    3.9708   -3.9072   -0.9131 F   0  0  0  0  0  0  0  0  0  0  0  0
   -1.3994   -0.8757   10.1318 F   0  0  0  0  0  0  0  0  0  0  0  0
    3.5380   -1.0219   -6.7993 N   0  0  0  0  0  0  0  0  0  0  0  0
   -0.2183    0.2797    4.7762 N   0  0  0  0  0  0  0  0  0  0  0  0
    5.3240   -2.7470   -4.1043 O   0  0  0  0  0  0  0  0  0  0  0  0
    2.7011   -2.9508   -3.1873 O   0  0  0  0  0  0  0  0  0  0  0  0
    4.0990   -0.8837    3.2026 O   0  0  0  0  0  0  0  0  0  0  0  0
   -0.1843   -1.1027    2.8890 O   0  0  0  0  0  0  0  0  0  0  0  0
    6.1226   -0.8558   -7.3633 H   0  0  0  0  0  0  0  0  0  0  0  0
    2.0628    0.7935    1.7455 H   0  0  0  0  0  0  0  0  0  0  0  0
    8.5457   -1.1074   -6.9195 H   0  0  0  0  0  0  0  0  0  0  0  0
    0.8889   -1.8474   -4.9094 H   0  0  0  0  0  0  0  0  0  0  0  0
    1.4240   -0.6407   -2.7835 H   0  0  0  0  0  0  0  0  0  0  0  0
    1.3792   -2.8475    5.3915 H   0  0  0  0  0  0  0  0  0  0  0  0
    3.1737   -2.7969    4.6846 H   0  0  0  0  0  0  0  0  0  0  0  0
    3.4911   -0.6070    5.5762 H   0  0  0  0  0  0  0  0  0  0  0  0
    1.6935   -0.6293    6.2860 H   0  0  0  0  0  0  0  0  0  0  0  0
    1.5093    0.3676    6.8945 H   0  0  0  0  0  0  0  0  0  0  0  0
   -2.6050   -0.3379    5.8092 H   0  0  0  0  0  0  0  0  0  0  0  0
    7.4531   -3.5596   -2.7336 H   0  0  0  0  0  0  0  0  0  0  0  0
    1.3163    0.5923   -0.6651 H   0  0  0  0  0  0  0  0  0  0  0  0
    3.6916   -2.4744    1.2464 H   0  0  0  0  0  0  0  0  0  0  0  0
    9.8037   -3.1464   -3.3484 H   0  0  0  0  0  0  0  0  0  0  0  0
    0.9791   -0.1906    9.2249 H   0  0  0  0  0  0  0  0  0  0  0  0
   -3.1289   -0.8417    8.1761 H   0  0  0  0  0  0  0  0  0  0  0  0
   10.3481   -1.9131   -5.4313 H   0  0  0  0  0  0  0  0  0  0  0  0
    1.4586   -0.7061   -7.0147 H   0  0  0  0  0  0  0  0  0  0  0  0
   -0.6780    1.1218    4.3652 H   0  0  0  0  0  0  0  0  0  0  0  0
  3  4  4  0
  1  4  1  0
  4  5  4  0
  1  6  1  0
  6  7  4  0
  2 10  1  0
 12 14  1  0
  5 18  4  0
  8 19  4  0
  7 19  4  0
  9 20  4  0
 11 20  4  0
  9 21  4  0
 10 21  4  0
 10 22  4  0
 11 22  4  0
  2 23  1  0
 24 13  1  1
 12 24  1  0
 14 24  1  0
 23 24  1  0
 18 25  4  0
 17 26  4  0
 15 26  4  0
 16 27  4  0
 15 27  4  0
 16 28  4  0
 17 28  4  0
 25 29  4  0
  3 29  4  0
  8 30  4  0
 11 31  1  0
 16 32  1  0
  6 33  4  0
 30 33  4  0
 26 34  1  0
 13 34  1  0
  5 35  1  0
  7 35  1  0
 20 36  1  0
 19 36  1  0
 23 37  2  0
 13 38  2  0
  1 39  1  0
  2 40  1  0
  3 41  1  0
  8 42  1  0
  9 43  1  0
 12 44  1  0
 12 45  1  0
 14 46  1  0
 14 47  1  0
 15 48  1  0
 17 49  1  0
 18 50  1  0
 21 51  1  0
 22 52  1  0
 25 53  1  0
 27 54  1  0
 28 55  1  0
 29 56  1  0
 30 57  1  0
 34 58  1  0
M  END
