7USH_82V_A_501
     RDKit          3D

 26 30  0  0  0  0  0  0  0  0999 V2000
   16.9444   -9.6718    9.5820 C   0  0  0  0  0  0  0  0  0  0  0  0
   15.9077   -5.7022    6.7204 C   0  0  0  0  0  0  0  0  0  0  0  0
   16.9059   -3.2461    6.3441 C   0  0  0  0  0  0  0  0  0  0  0  0
   18.7781   -3.6263    7.9178 C   0  0  0  0  0  0  0  0  0  0  0  0
   20.9974   -2.7885    9.2953 C   0  0  0  0  0  0  0  0  0  0  0  0
   23.3639   -2.1353    9.1909 C   0  0  0  0  0  0  0  0  0  0  0  0
   19.7000   -2.8432    7.2601 C   0  0  0  0  0  0  0  0  0  0  0  0
   14.2545   -7.1299    6.1342 O   0  0  0  0  0  0  0  0  0  0  0  0
   15.2698   -6.9074    6.7972 C   0  0  0  0  0  0  0  0  0  0  0  0
   15.8140   -7.8763    7.6578 C   0  0  0  0  0  0  0  0  0  0  0  0
   16.9494   -7.4730    8.3275 C   0  0  0  0  0  0  0  0  0  0  0  0
   17.5498   -8.4052    9.2161 N   0  0  0  0  0  0  0  0  0  0  0  0
   18.8539   -8.1228    9.8210 C   0  0  0  0  0  0  0  0  0  0  0  0
   18.7624   -8.6344   11.2385 C   0  0  0  0  0  0  0  0  0  0  0  0
   17.4829   -8.6988   11.7214 O   0  0  0  0  0  0  0  0  0  0  0  0
   16.6286   -9.5537   11.0739 C   0  0  0  0  0  0  0  0  0  0  0  0
   17.5126   -6.3102    8.2131 O   0  0  0  0  0  0  0  0  0  0  0  0
   17.0316   -5.3358    7.3999 C   0  0  0  0  0  0  0  0  0  0  0  0
   15.4593   -4.2700    5.7240 S   0  0  0  0  0  0  0  0  0  0  0  0
   17.5547   -4.1264    7.2383 C   0  0  0  0  0  0  0  0  0  0  0  0
   18.9291   -4.0075    9.2505 C   0  0  0  0  0  0  0  0  0  0  0  0
   20.0589   -3.5661    9.9098 C   0  0  0  0  0  0  0  0  0  0  0  0
   22.1505   -2.3126    9.8950 O   0  0  0  0  0  0  0  0  0  0  0  0
   23.1298   -1.6826    7.7671 C   0  0  0  0  0  0  0  0  0  0  0  0
   21.7829   -1.6435    7.3916 O   0  0  0  0  0  0  0  0  0  0  0  0
   20.7994   -2.4369    7.9684 C   0  0  0  0  0  0  0  0  0  0  0  0
  4  7  1  0
  2  9  1  0
  8  9  2  0
  9 10  1  0
 10 11  2  0
 11 12  1  0
  1 12  1  1
 13 12  1  6
 13 14  1  0
 14 15  1  6
  1 16  1  0
 16 15  1  6
 11 17  1  0
  2 18  2  0
 17 18  1  0
  3 19  1  0
  2 19  1  0
  3 20  2  0
  4 20  1  0
 18 20  1  0
  4 21  2  0
  5 22  2  0
 21 22  1  0
  5 23  1  0
  6 23  1  1
  6 24  1  0
 24 25  1  1
 25 26  1  0
  7 26  2  0
  5 26  1  0
M  END
$$$$
