7VBU_6I4_A_507
     RDKit          3D

 17 20  0  0  0  0  0  0  0  0999 V2000
   61.6156   64.1430   84.7738 C   0  0  0  0  0  0  0  0  0  0  0  0
   62.3755   63.5382   85.7812 C   0  0  0  0  0  0  0  0  0  0  0  0
   61.8115   63.1183   86.9672 C   0  0  0  0  0  0  0  0  0  0  0  0
   60.2578   64.3374   84.9463 C   0  0  0  0  0  0  0  0  0  0  0  0
   59.6762   63.9208   86.1328 C   0  0  0  0  0  0  0  0  0  0  0  0
   60.4538   63.3227   87.1176 C   0  0  0  0  0  0  0  0  0  0  0  0
   59.4508   64.9778   83.8806 C   0  0  2  0  0  0  0  0  0  0  0  0
   60.0536   65.7932   82.8156 C   0  0  0  0  0  0  0  0  0  0  0  0
   59.2684   66.4709   83.9576 C   0  0  0  0  0  0  0  0  0  0  0  0
   58.3795   63.4072   87.8541 C   0  0  0  0  0  0  0  0  0  0  0  0
   59.6623   62.9948   88.2003 C   0  0  0  0  0  0  0  0  0  0  0  0
   59.9231   62.3955   89.4181 C   0  0  0  0  0  0  0  0  0  0  0  0
   58.8734   62.2075   90.3044 C   0  0  0  0  0  0  0  0  0  0  0  0
   57.5964   62.6258   89.9426 C   0  0  0  0  0  0  0  0  0  0  0  0
   56.4690   62.4211   90.9008 C   0  0  0  0  0  0  0  0  0  0  0  0
   57.3993   63.1991   88.7543 N   0  0  0  0  0  0  0  0  0  0  0  0
   58.4129   63.9606   86.6074 N   0  0  0  0  0  0  0  0  0  0  0  0
  1  2  2  0
  2  3  1  0
  1  4  1  0
  4  5  2  0
  5  6  1  0
  3  6  2  0
  7  4  1  1
  7  8  1  0
  8  9  1  0
  7  9  1  0
 10 11  2  0
  6 11  1  0
 11 12  1  0
 12 13  2  0
 13 14  1  0
 14 15  1  0
 10 16  1  0
 14 16  2  0
 10 17  1  0
  5 17  1  0
M  END
$$$$
