7CL8_TES_A_505
     RDKit          3D

 49 52  0  0  0  0  0  0  0  0999 V2000
   -0.2843    2.1164  -10.5433 C   0  0  0  0  0  0  0  0  0  0  0  0
    0.4395    3.1137  -11.4521 C   0  0  0  0  0  0  0  0  0  0  0  0
   -0.0218    4.5070  -11.1735 C   0  0  0  0  0  0  0  0  0  0  0  0
    0.0639    5.3849  -12.0726 O   0  0  0  0  0  0  0  0  0  0  0  0
   -0.5126    4.8786   -9.8403 C   0  0  0  0  0  0  0  0  0  0  0  0
   -0.6554    3.9751   -8.8528 C   0  0  0  0  0  0  0  0  0  0  0  0
   -1.0309    4.4697   -7.4752 C   0  0  0  0  0  0  0  0  0  0  0  0
   -2.0285    3.5294   -6.8052 C   0  0  0  0  0  0  0  0  0  0  0  0
   -1.4857    2.0911   -6.7685 C   0  0  2  0  0  0  0  0  0  0  0  0
   -1.2325    1.5850   -8.2299 C   0  0  1  0  0  0  0  0  0  0  0  0
   -0.2320    2.5082   -9.0302 C   0  0  1  0  0  0  0  0  0  0  0  0
   -0.8663    0.0643   -8.2767 C   0  0  0  0  0  0  0  0  0  0  0  0
   -1.8338   -0.8271   -7.4609 C   0  0  0  0  0  0  0  0  0  0  0  0
   -1.9900   -0.3049   -6.0169 C   0  0  1  0  0  0  0  0  0  0  0  0
   -2.4975    1.1409   -6.0940 C   0  0  1  0  0  0  0  0  0  0  0  0
   -2.9910    1.4539   -4.6851 C   0  0  0  0  0  0  0  0  0  0  0  0
   -3.5530    0.1137   -4.1756 C   0  0  0  0  0  0  0  0  0  0  0  0
   -3.1413   -0.9552   -5.2201 C   0  0  2  0  0  0  0  0  0  0  0  0
   -2.8076   -2.2027   -4.6556 O   0  0  0  0  0  0  0  0  0  0  0  0
   -0.6444   -0.4611   -5.2383 C   0  0  0  0  0  0  0  0  0  0  0  0
    1.2227    2.3617   -8.5140 C   0  0  0  0  0  0  0  0  0  0  0  0
   -1.3437    2.0551  -10.8794 H   0  0  0  0  0  0  0  0  0  0  0  0
    0.1729    1.1179  -10.7087 H   0  0  0  0  0  0  0  0  0  0  0  0
    1.5371    3.0528  -11.2963 H   0  0  0  0  0  0  0  0  0  0  0  0
    0.2308    2.8559  -12.5132 H   0  0  0  0  0  0  0  0  0  0  0  0
   -0.7588    5.9197   -9.6658 H   0  0  0  0  0  0  0  0  0  0  0  0
   -0.1120    4.5435   -6.8546 H   0  0  0  0  0  0  0  0  0  0  0  0
   -1.4878    5.4832   -7.5174 H   0  0  0  0  0  0  0  0  0  0  0  0
   -2.9963    3.5645   -7.3536 H   0  0  0  0  0  0  0  0  0  0  0  0
   -2.2075    3.8935   -5.7706 H   0  0  0  0  0  0  0  0  0  0  0  0
   -0.5473    2.1057   -6.1808 H   0  0  0  0  0  0  0  0  0  0  0  0
   -2.2146    1.6633   -8.7524 H   0  0  0  0  0  0  0  0  0  0  0  0
   -0.9031   -0.2971   -9.3247 H   0  0  0  0  0  0  0  0  0  0  0  0
    0.1678   -0.1032   -7.9188 H   0  0  0  0  0  0  0  0  0  0  0  0
   -1.4543   -1.8720   -7.4488 H   0  0  0  0  0  0  0  0  0  0  0  0
   -2.8210   -0.8419   -7.9739 H   0  0  0  0  0  0  0  0  0  0  0  0
   -3.4148    1.1581   -6.7345 H   0  0  0  0  0  0  0  0  0  0  0  0
   -2.1505    1.7971   -4.0433 H   0  0  0  0  0  0  0  0  0  0  0  0
   -3.7808    2.2363   -4.7007 H   0  0  0  0  0  0  0  0  0  0  0  0
   -3.1376   -0.1027   -3.1676 H   0  0  0  0  0  0  0  0  0  0  0  0
   -4.6610    0.1609   -4.0957 H   0  0  0  0  0  0  0  0  0  0  0  0
   -4.0084   -1.1179   -5.8998 H   0  0  0  0  0  0  0  0  0  0  0  0
   -2.2633   -2.0510   -3.8407 H   0  0  0  0  0  0  0  0  0  0  0  0
   -0.7350   -0.1191   -4.1867 H   0  0  0  0  0  0  0  0  0  0  0  0
   -0.3351   -1.5278   -5.2235 H   0  0  0  0  0  0  0  0  0  0  0  0
    0.1919    0.1006   -5.6942 H   0  0  0  0  0  0  0  0  0  0  0  0
    1.6547    1.3781   -8.7919 H   0  0  0  0  0  0  0  0  0  0  0  0
    1.2830    2.4722   -7.4135 H   0  0  0  0  0  0  0  0  0  0  0  0
    1.8766    3.1447   -8.9534 H   0  0  0  0  0  0  0  0  0  0  0  0
  1  2  1  0
  2  3  1  0
  3  4  2  0
  3  5  1  0
  5  6  2  0
  6  7  1  0
  7  8  1  0
  9  8  1  0
  9 10  1  0
  1 11  1  0
  6 11  1  0
 10 11  1  0
 10 12  1  0
 12 13  1  0
 13 14  1  0
  9 15  1  0
 14 15  1  0
 15 16  1  0
 16 17  1  0
 14 18  1  0
 17 18  1  0
 18 19  1  0
 14 20  1  1
 11 21  1  1
  1 22  1  0
  1 23  1  0
  2 24  1  0
  2 25  1  0
  5 26  1  0
  7 27  1  0
  7 28  1  0
  8 29  1  0
  8 30  1  0
  9 31  1  1
 10 32  1  6
 12 33  1  0
 12 34  1  0
 13 35  1  0
 13 36  1  0
 15 37  1  6
 16 38  1  0
 16 39  1  0
 17 40  1  0
 17 41  1  0
 18 42  1  6
 19 43  1  0
 20 44  1  0
 20 45  1  0
 20 46  1  0
 21 47  1  0
 21 48  1  0
 21 49  1  0
M  END
