7OU8_1XI_AAA_801
     RDKit          3D

 44 46  0  0  0  0  0  0  0  0999 V2000
   -3.0260   62.6431   53.3191 C   0  0  2  0  0  0  0  0  0  0  0  0
   -2.2329   63.0723   54.5870 C   0  0  2  0  0  0  0  0  0  0  0  0
   -2.7386   62.3991   55.8956 C   0  0  1  0  0  0  0  0  0  0  0  0
   -5.0761   63.2019   55.6350 N   0  0  0  0  0  0  0  0  0  0  0  0
   -3.6980   61.3608   53.4907 N   0  0  0  0  0  0  0  0  0  0  0  0
   -4.4555   60.9938   54.6907 C   0  0  2  0  0  0  0  0  0  0  0  0
   -5.7297   65.5889   56.1776 C   0  0  1  0  0  0  0  0  0  0  0  0
   -5.0717   64.3021   56.5549 C   0  0  0  0  0  0  0  0  0  0  0  0
   -4.5354   64.1854   57.6899 O   0  0  0  0  0  0  0  0  0  0  0  0
   -4.2349   62.0127   55.8245 C   0  0  1  0  0  0  0  0  0  0  0  0
   -3.6925   60.5788   52.3054 C   0  0  0  0  0  0  0  0  0  0  0  0
   -4.1123   59.3473   52.3016 N   0  0  0  0  0  0  0  0  0  0  0  0
   -4.0729   58.4495   51.1493 C   0  0  1  0  0  0  0  0  0  0  0  0
   -3.6546   59.1956   49.9096 C   0  0  0  0  0  0  0  0  0  0  0  0
   -4.5614   59.4010   48.8560 C   0  0  0  0  0  0  0  0  0  0  0  0
   -4.1649   60.1007   47.7121 C   0  0  0  0  0  0  0  0  0  0  0  0
   -2.8617   60.5944   47.6090 C   0  0  0  0  0  0  0  0  0  0  0  0
   -1.9519   60.3884   48.6495 C   0  0  0  0  0  0  0  0  0  0  0  0
   -2.3446   59.6904   49.7957 C   0  0  0  0  0  0  0  0  0  0  0  0
   -2.9511   61.3846   50.8949 S   0  0  0  0  0  0  0  0  0  0  0  0
   -2.1361   62.5229   52.0668 C   0  0  1  0  0  0  0  0  0  0  0  0
   -2.3147   64.4708   54.7091 O   0  0  0  0  0  0  0  0  0  0  0  0
   -1.9666   61.2505   56.1472 O   0  0  0  0  0  0  0  0  0  0  0  0
   -3.8094   63.4030   53.1012 H   0  0  0  0  0  0  0  0  0  0  0  0
   -1.1601   62.7922   54.4604 H   0  0  0  0  0  0  0  0  0  0  0  0
   -2.5884   63.1107   56.7404 H   0  0  0  0  0  0  0  0  0  0  0  0
   -5.7420   63.2424   54.8297 H   0  0  0  0  0  0  0  0  0  0  0  0
   -4.1127   59.9943   55.0373 H   0  0  0  0  0  0  0  0  0  0  0  0
   -5.5366   60.9134   54.4454 H   0  0  0  0  0  0  0  0  0  0  0  0
   -5.4265   65.8734   55.1482 H   0  0  0  0  0  0  0  0  0  0  0  0
   -6.8321   65.4657   56.2132 H   0  0  0  0  0  0  0  0  0  0  0  0
   -5.4331   66.3998   56.8764 H   0  0  0  0  0  0  0  0  0  0  0  0
   -4.5318   61.5227   56.7787 H   0  0  0  0  0  0  0  0  0  0  0  0
   -3.3267   57.6519   51.3484 H   0  0  0  0  0  0  0  0  0  0  0  0
   -5.0588   57.9511   51.0204 H   0  0  0  0  0  0  0  0  0  0  0  0
   -5.5749   59.0254   48.9211 H   0  0  0  0  0  0  0  0  0  0  0  0
   -4.8682   60.2603   46.9051 H   0  0  0  0  0  0  0  0  0  0  0  0
   -2.5567   61.1355   46.7226 H   0  0  0  0  0  0  0  0  0  0  0  0
   -0.9425   60.7696   48.5682 H   0  0  0  0  0  0  0  0  0  0  0  0
   -1.6306   59.5376   50.5958 H   0  0  0  0  0  0  0  0  0  0  0  0
   -1.9852   63.5163   51.5941 H   0  0  0  0  0  0  0  0  0  0  0  0
   -1.1457   62.0862   52.3172 H   0  0  0  0  0  0  0  0  0  0  0  0
   -2.0835   64.6960   55.6483 H   0  0  0  0  0  0  0  0  0  0  0  0
   -2.2129   60.9284   57.0538 H   0  0  0  0  0  0  0  0  0  0  0  0
  1  2  1  0
  2  3  1  0
  1  5  1  0
  5  6  1  0
  7  8  1  0
  4  8  1  0
  8  9  2  0
 10  4  1  0
  3 10  1  0
  6 10  1  0
  5 11  1  0
 11 12  2  0
 12 13  1  0
 13 14  1  0
 14 15  2  0
 15 16  1  0
 16 17  2  0
 17 18  1  0
 18 19  2  0
 14 19  1  0
 11 20  1  0
  1 21  1  0
 20 21  1  0
  2 22  1  0
  3 23  1  0
  1 24  1  6
  2 25  1  6
  3 26  1  1
  4 27  1  0
  6 28  1  1
  6 29  1  0
  7 30  1  6
  7 31  1  0
  7 32  1  0
 10 33  1  1
 13 34  1  1
 13 35  1  0
 15 36  1  0
 16 37  1  0
 17 38  1  0
 18 39  1  0
 19 40  1  0
 21 41  1  6
 21 42  1  0
 22 43  1  0
 23 44  1  0
M  END
