7MOI_HPS_A_501
     RDKit          3D

 11 11  0  0  0  0  0  0  0  0999 V2000
   13.0580    8.4640    2.5660 C   0  0  0  0  0  0  0  0  0  0  0  0
   11.9440    7.9420    1.9080 C   0  0  0  0  0  0  0  0  0  0  0  0
   11.9060    7.8300    0.5160 C   0  0  0  0  0  0  0  0  0  0  0  0
   12.9990    8.2410   -0.2240 C   0  0  0  0  0  0  0  0  0  0  0  0
   14.1140    8.7660    0.4290 C   0  0  0  0  0  0  0  0  0  0  0  0
   14.1480    8.8770    1.8170 C   0  0  0  0  0  0  0  0  0  0  0  0
   15.2640    9.2180   -0.2660 O   0  0  0  0  0  0  0  0  0  0  0  0
   15.6900    8.8650   -1.7430 P   0  0  0  0  0  0  0  0  0  0  0  0
   16.9010    9.7410   -1.9000 O   0  0  0  0  0  0  0  0  0  0  0  0
   16.0870    7.4370   -1.8970 O   0  0  0  0  0  0  0  0  0  0  0  0
   14.6290    9.2500   -2.7210 O   0  0  0  0  0  0  0  0  0  0  0  0
  1  2  2  0
  2  3  1  0
  3  4  2  0
  4  5  1  0
  1  6  1  0
  5  6  2  0
  5  7  1  0
  7  8  1  0
  8  9  1  0
  8 10  1  0
  8 11  2  0
M  END
$$$$
7MOI_HPS_B_501
     RDKit          3D

 11 11  0  0  0  0  0  0  0  0999 V2000
   27.9270   28.9010   18.6290 C   0  0  0  0  0  0  0  0  0  0  0  0
   26.8710   28.0570   18.9740 C   0  0  0  0  0  0  0  0  0  0  0  0
   25.9990   27.5440   18.0150 C   0  0  0  0  0  0  0  0  0  0  0  0
   26.1940   27.8820   16.6870 C   0  0  0  0  0  0  0  0  0  0  0  0
   27.2360   28.7360   16.3400 C   0  0  0  0  0  0  0  0  0  0  0  0
   28.1050   29.2450   17.3040 C   0  0  0  0  0  0  0  0  0  0  0  0
   27.3720   29.0240   14.9650 O   0  0  0  0  0  0  0  0  0  0  0  0
   28.2730   30.1580   14.3100 P   0  0  0  0  0  0  0  0  0  0  0  0
   29.6910   30.0090   14.7340 O   0  0  0  0  0  0  0  0  0  0  0  0
   27.7420   31.5130   14.6380 O   0  0  0  0  0  0  0  0  0  0  0  0
   28.1320   29.9000   12.8330 O   0  0  0  0  0  0  0  0  0  0  0  0
  1  2  2  0
  2  3  1  0
  3  4  2  0
  4  5  1  0
  1  6  1  0
  5  6  2  0
  5  7  1  0
  7  8  1  0
  8  9  1  0
  8 10  1  0
  8 11  2  0
M  END
$$$$
