1IA1_TQ3_B_196
     RDKit          3D

 19 21  0  0  0  0  0  0  0  0999 V2000
   29.1854   -2.5149   -0.5245 C   0  0  0  0  0  0  0  0  0  0  0  0
   29.2753   -2.7515    0.8317 C   0  0  0  0  0  0  0  0  0  0  0  0
   28.4087   -2.1568    1.7003 C   0  0  0  0  0  0  0  0  0  0  0  0
   27.4725   -1.3352    1.1809 N   0  0  0  0  0  0  0  0  0  0  0  0
   27.3993   -1.1145   -0.1441 C   0  0  0  0  0  0  0  0  0  0  0  0
   28.2440   -1.6935   -1.0101 N   0  0  0  0  0  0  0  0  0  0  0  0
   28.3847   -2.3476    3.1023 N   0  0  0  0  0  0  0  0  0  0  0  0
   30.0300   -3.1081   -1.4448 C   0  0  0  0  0  0  0  0  0  0  0  0
   30.9993   -3.9728   -0.9556 C   0  0  0  0  0  0  0  0  0  0  0  0
   31.0763   -4.1972    0.4044 C   0  0  0  0  0  0  0  0  0  0  0  0
   30.2342   -3.6037    1.3150 C   0  0  0  0  0  0  0  0  0  0  0  0
   26.3636   -0.2210   -0.5889 N   0  0  0  0  0  0  0  0  0  0  0  0
   30.4632   -3.9947    3.0346 S   0  0  0  0  0  0  0  0  0  0  0  0
   31.5465   -5.3654    3.2866 C   0  0  0  0  0  0  0  0  0  0  0  0
   32.4799   -5.8299    2.3998 C   0  0  0  0  0  0  0  0  0  0  0  0
   33.2840   -6.9222    2.6947 C   0  0  0  0  0  0  0  0  0  0  0  0
   33.1806   -7.5932    3.8983 C   0  0  0  0  0  0  0  0  0  0  0  0
   32.2406   -7.1315    4.8008 C   0  0  0  0  0  0  0  0  0  0  0  0
   31.4497   -6.0468    4.4950 C   0  0  0  0  0  0  0  0  0  0  0  0
  1  2  1  0
  2  3  2  0
  3  4  1  0
  4  5  2  0
  1  6  2  0
  5  6  1  0
  3  7  1  0
  1  8  1  0
  8  9  2  0
  9 10  1  0
  2 11  1  0
 10 11  2  0
  5 12  1  0
 11 13  1  0
 13 14  1  0
 14 15  2  0
 15 16  1  0
 16 17  2  0
 17 18  1  0
 14 19  1  0
 18 19  2  0
M  END
$$$$
