1IA1_TQ3_B_196
     RDKit          3D

 19 21  0  0  0  0  0  0  0  0999 V2000
   28.9120   -2.4580   -0.8172 C   0  0  0  0  0  0  0  0  0  0  0  0
   29.1948   -2.6452    0.5201 C   0  0  0  0  0  0  0  0  0  0  0  0
   28.5156   -1.9523    1.4781 C   0  0  0  0  0  0  0  0  0  0  0  0
   27.5681   -1.0847    1.0649 N   0  0  0  0  0  0  0  0  0  0  0  0
   27.3055   -0.9134   -0.2433 C   0  0  0  0  0  0  0  0  0  0  0  0
   27.9646   -1.5889   -1.1963 N   0  0  0  0  0  0  0  0  0  0  0  0
   28.6964   -2.0835    2.8755 N   0  0  0  0  0  0  0  0  0  0  0  0
   29.5616   -3.1498   -1.8230 C   0  0  0  0  0  0  0  0  0  0  0  0
   30.5341   -4.0641   -1.4422 C   0  0  0  0  0  0  0  0  0  0  0  0
   30.8056   -4.2380   -0.0999 C   0  0  0  0  0  0  0  0  0  0  0  0
   30.1570   -3.5465    0.8959 C   0  0  0  0  0  0  0  0  0  0  0  0
   26.2763    0.0363   -0.5715 N   0  0  0  0  0  0  0  0  0  0  0  0
   30.6227   -3.8831    2.5788 S   0  0  0  0  0  0  0  0  0  0  0  0
   32.2173   -4.6283    2.7118 C   0  0  0  0  0  0  0  0  0  0  0  0
   33.3572   -4.0200    3.1634 C   0  0  0  0  0  0  0  0  0  0  0  0
   34.5675   -4.6968    3.2264 C   0  0  0  0  0  0  0  0  0  0  0  0
   34.6795   -6.0176    2.8360 C   0  0  0  0  0  0  0  0  0  0  0  0
   33.5334   -6.6409    2.3783 C   0  0  0  0  0  0  0  0  0  0  0  0
   32.3396   -5.9574    2.3212 C   0  0  0  0  0  0  0  0  0  0  0  0
  1  2  1  0
  2  3  2  0
  3  4  1  0
  4  5  2  0
  1  6  2  0
  5  6  1  0
  3  7  1  0
  1  8  1  0
  8  9  2  0
  9 10  1  0
  2 11  1  0
 10 11  2  0
  5 12  1  0
 11 13  1  0
 13 14  1  0
 14 15  2  0
 15 16  1  0
 16 17  2  0
 17 18  1  0
 14 19  1  0
 18 19  2  0
M  END
$$$$
