1IA1_TQ3_B_196
     RDKit          3D

 19 21  0  0  0  0  0  0  0  0999 V2000
   29.2333   -2.6232   -0.4937 C   0  0  0  0  0  0  0  0  0  0  0  0
   29.3400   -2.7350    0.8772 C   0  0  0  0  0  0  0  0  0  0  0  0
   28.4922   -2.0526    1.6987 C   0  0  0  0  0  0  0  0  0  0  0  0
   27.5575   -1.2712    1.1182 N   0  0  0  0  0  0  0  0  0  0  0  0
   27.4677   -1.1725   -0.2204 C   0  0  0  0  0  0  0  0  0  0  0  0
   28.2938   -1.8388   -1.0405 N   0  0  0  0  0  0  0  0  0  0  0  0
   28.4862   -2.1133    3.1125 N   0  0  0  0  0  0  0  0  0  0  0  0
   30.0583   -3.3085   -1.3665 C   0  0  0  0  0  0  0  0  0  0  0  0
   31.0252   -4.1360   -0.8124 C   0  0  0  0  0  0  0  0  0  0  0  0
   31.1192   -4.2352    0.5613 C   0  0  0  0  0  0  0  0  0  0  0  0
   30.2966   -3.5505    1.4243 C   0  0  0  0  0  0  0  0  0  0  0  0
   26.4353   -0.3116   -0.7320 N   0  0  0  0  0  0  0  0  0  0  0  0
   30.5458   -3.7842    3.1695 S   0  0  0  0  0  0  0  0  0  0  0  0
   32.1582   -4.3902    3.5555 C   0  0  0  0  0  0  0  0  0  0  0  0
   33.3427   -3.8836    3.0933 C   0  0  0  0  0  0  0  0  0  0  0  0
   34.5625   -4.4376    3.4564 C   0  0  0  0  0  0  0  0  0  0  0  0
   34.6394   -5.5275    4.3024 C   0  0  0  0  0  0  0  0  0  0  0  0
   33.4481   -6.0465    4.7747 C   0  0  0  0  0  0  0  0  0  0  0  0
   32.2454   -5.4869    4.4062 C   0  0  0  0  0  0  0  0  0  0  0  0
  1  2  1  0
  2  3  2  0
  3  4  1  0
  4  5  2  0
  1  6  2  0
  5  6  1  0
  3  7  1  0
  1  8  1  0
  8  9  2  0
  9 10  1  0
  2 11  1  0
 10 11  2  0
  5 12  1  0
 11 13  1  0
 13 14  1  0
 14 15  2  0
 15 16  1  0
 16 17  2  0
 17 18  1  0
 14 19  1  0
 18 19  2  0
M  END
$$$$
