1IA1_TQ3_B_196
     RDKit          3D

 19 21  0  0  0  0  0  0  0  0999 V2000
    7.2612   36.6728   19.3219 C   0  0  0  0  0  0  0  0  0  0  0  0
    8.3656   36.1496   18.6818 C   0  0  0  0  0  0  0  0  0  0  0  0
    8.3223   34.9056   18.1252 C   0  0  0  0  0  0  0  0  0  0  0  0
    7.1663   34.2170   18.2292 N   0  0  0  0  0  0  0  0  0  0  0  0
    6.0989   34.7415   18.8578 C   0  0  0  0  0  0  0  0  0  0  0  0
    6.1267   35.9642   19.4086 N   0  0  0  0  0  0  0  0  0  0  0  0
    9.3774   34.2802   17.4195 N   0  0  0  0  0  0  0  0  0  0  0  0
    7.2519   37.9354   19.8858 C   0  0  0  0  0  0  0  0  0  0  0  0
    8.4160   38.6851   19.7891 C   0  0  0  0  0  0  0  0  0  0  0  0
    9.5124   38.1458   19.1464 C   0  0  0  0  0  0  0  0  0  0  0  0
    9.5160   36.8893   18.5884 C   0  0  0  0  0  0  0  0  0  0  0  0
    4.9187   33.9210   18.9103 N   0  0  0  0  0  0  0  0  0  0  0  0
   11.0094   36.3375   17.7960 S   0  0  0  0  0  0  0  0  0  0  0  0
   12.0496   37.6713   17.2915 C   0  0  0  0  0  0  0  0  0  0  0  0
   12.5844   38.6310   18.1079 C   0  0  0  0  0  0  0  0  0  0  0  0
   13.3916   39.6439   17.6088 C   0  0  0  0  0  0  0  0  0  0  0  0
   13.6942   39.7320   16.2634 C   0  0  0  0  0  0  0  0  0  0  0  0
   13.1588   38.7670   15.4305 C   0  0  0  0  0  0  0  0  0  0  0  0
   12.3596   37.7679   15.9393 C   0  0  0  0  0  0  0  0  0  0  0  0
  1  2  1  0
  2  3  2  0
  3  4  1  0
  4  5  2  0
  1  6  2  0
  5  6  1  0
  3  7  1  0
  1  8  1  0
  8  9  2  0
  9 10  1  0
  2 11  1  0
 10 11  2  0
  5 12  1  0
 11 13  1  0
 13 14  1  0
 14 15  2  0
 15 16  1  0
 16 17  2  0
 17 18  1  0
 14 19  1  0
 18 19  2  0
M  END
$$$$
