7NR8_UOE_A_408
     RDKit          3D

 45 50  0  0  0  0  0  0  0  0999 V2000
    1.8820   10.4180   45.1120 C   0  0  0  0  0  0  0  0  0  0  0  0
    2.4830    9.0550   45.4620 C   0  0  2  0  0  0  0  0  0  0  0  0
    6.1440    9.6330   45.3700 C   0  0  0  0  0  0  0  0  0  0  0  0
    7.3740   10.2480   45.3990 C   0  0  0  0  0  0  0  0  0  0  0  0
    8.5090    9.5420   45.0650 C   0  0  0  0  0  0  0  0  0  0  0  0
    8.4360    8.2020   44.6900 C   0  0  0  0  0  0  0  0  0  0  0  0
    6.0500    8.3030   45.0000 C   0  0  0  0  0  0  0  0  0  0  0  0
    4.6230    7.9090   45.0570 C   0  0  0  0  0  0  0  0  0  0  0  0
    9.6950    7.4640   44.3990 C   0  0  0  0  0  0  0  0  0  0  0  0
   11.7950    7.5770   43.4630 C   0  0  0  0  0  0  0  0  0  0  0  0
   11.4300   10.6370   40.0700 C   0  0  0  0  0  0  0  0  0  0  0  0
   13.4450   11.5080   40.9110 C   0  0  0  0  0  0  0  0  0  0  0  0
   13.7350   10.2670   41.7380 C   0  0  0  0  0  0  0  0  0  0  0  0
   11.2820    5.6650   44.5840 C   0  0  0  0  0  0  0  0  0  0  0  0
   10.0300    6.1900   44.8780 C   0  0  0  0  0  0  0  0  0  0  0  0
    2.1020    8.6060   46.8730 C   0  0  0  0  0  0  0  0  0  0  0  0
   -0.7450    7.0120   48.2580 C   0  0  0  0  0  0  0  0  0  0  0  0
   -1.6240   10.6930   50.6310 C   0  0  0  0  0  0  0  0  0  0  0  0
   -2.0580   11.5750   49.6820 C   0  0  0  0  0  0  0  0  0  0  0  0
   -1.7480   11.3440   48.3340 C   0  0  0  0  0  0  0  0  0  0  0  0
   -2.5690   13.5520   47.5420 C   0  0  0  0  0  0  0  0  0  0  0  0
   -4.0920   14.2300   44.1330 C   0  0  0  0  0  0  0  0  0  0  0  0
    3.9260    9.0490   45.2790 N   0  0  0  0  0  0  0  0  0  0  0  0
    4.7760   10.1760   45.6510 C   0  0  0  0  0  0  0  0  0  0  0  0
    7.1790    7.5770   44.6740 C   0  0  0  0  0  0  0  0  0  0  0  0
    4.1240    6.7950   44.9370 O   0  0  0  0  0  0  0  0  0  0  0  0
   10.5950    8.1600   43.7160 N   0  0  0  0  0  0  0  0  0  0  0  0
   12.6830    8.2750   42.7370 N   0  0  0  0  0  0  0  0  0  0  0  0
   12.4350    9.5500   42.1020 C   0  0  0  0  0  0  0  0  0  0  0  0
   11.5820    9.3470   40.8520 C   0  0  0  0  0  0  0  0  0  0  0  0
   12.7090   11.1850   39.7190 O   0  0  0  0  0  0  0  0  0  0  0  0
   12.1610    6.3380   43.8550 N   0  0  0  0  0  0  0  0  0  0  0  0
    8.9340    5.2450   45.8300 Cl  0  0  0  0  0  0  0  0  0  0  0  0
    2.9460    8.3510   47.7310 O   0  0  0  0  0  0  0  0  0  0  0  0
    0.7920    8.5050   47.0820 N   0  0  0  0  0  0  0  0  0  0  0  0
    0.1780    8.2270   48.3770 C   0  0  1  0  0  0  0  0  0  0  0  0
   -1.7420    7.2360   47.2670 O   0  0  0  0  0  0  0  0  0  0  0  0
   -0.6050    9.4190   48.8930 C   0  0  0  0  0  0  0  0  0  0  0  0
   -0.8880    9.5960   50.2350 C   0  0  0  0  0  0  0  0  0  0  0  0
   -1.0330   10.2630   47.9550 N   0  0  0  0  0  0  0  0  0  0  0  0
   -2.1380   12.1680   47.3140 N   0  0  0  0  0  0  0  0  0  0  0  0
   -3.6280   13.9560   46.5370 C   0  0  0  0  0  0  0  0  0  0  0  0
   -3.1160   13.7550   45.1510 N   0  0  0  0  0  0  0  0  0  0  0  0
   -2.7680   12.3170   44.9440 C   0  0  0  0  0  0  0  0  0  0  0  0
   -1.7020   11.9110   45.9390 C   0  0  0  0  0  0  0  0  0  0  0  0
  2  1  1  1
  3  4  2  0
  4  5  1  0
  5  6  2  0
  3  7  1  0
  7  8  1  0
  6  9  1  0
 12 13  1  0
  9 15  1  0
 14 15  2  0
  2 16  1  0
 18 19  2  0
 19 20  1  0
  8 23  1  0
  2 23  1  0
 23 24  1  0
  3 24  1  0
  6 25  1  0
  7 25  2  0
  8 26  2  0
 10 27  1  0
  9 27  2  0
 10 28  1  0
 13 29  1  0
 28 29  1  0
 11 30  1  0
 29 30  1  0
 11 31  1  0
 12 31  1  0
 10 32  2  0
 14 32  1  0
 15 33  1  0
 16 34  2  0
 16 35  1  0
 35 36  1  0
 36 17  1  6
 17 37  1  0
 36 38  1  0
 38 39  2  0
 18 39  1  0
 20 40  2  0
 38 40  1  0
 21 41  1  0
 20 41  1  0
 21 42  1  0
 22 43  1  0
 42 43  1  0
 43 44  1  0
 44 45  1  0
 41 45  1  0
M  END
$$$$
