7F51_BA7_A_402
     RDKit          3D

 44 48  0  0  0  0  0  0  0  0999 V2000
    1.9351    0.3889    4.2047 C   0  0  0  0  0  0  0  0  0  0  0  0
   -0.9109    4.8302   16.2419 C   0  0  2  0  0  0  0  0  0  0  0  0
    3.5887   -1.0771    3.2275 C   0  0  0  0  0  0  0  0  0  0  0  0
    2.9120   -0.5905    4.3633 C   0  0  0  0  0  0  0  0  0  0  0  0
   -0.1619    4.0684    6.2748 C   0  0  2  0  0  0  0  0  0  0  0  0
   -0.9071    1.2919   18.8356 C   0  0  0  0  0  0  0  0  0  0  0  0
   -0.4922    6.1835   15.7143 C   0  0  1  0  0  0  0  0  0  0  0  0
    0.3321    2.6350    6.5196 C   0  0  1  0  0  0  0  0  0  0  0  0
    1.6057    0.8762    2.9561 C   0  0  0  0  0  0  0  0  0  0  0  0
   -1.4815    6.3983   14.5463 C   0  0  1  0  0  0  0  0  0  0  0  0
   -0.9741    1.9556    7.0476 C   0  0  1  0  0  0  0  0  0  0  0  0
    0.1389    2.8941   17.4468 C   0  0  0  0  0  0  0  0  0  0  0  0
   -1.7673    4.9945   14.0587 C   0  0  1  0  0  0  0  0  0  0  0  0
   -2.0745    2.7868    6.3972 C   0  0  1  0  0  0  0  0  0  0  0  0
    1.3291    2.3066   17.6186 C   0  0  0  0  0  0  0  0  0  0  0  0
   -1.1640    4.7618   12.6741 C   0  0  0  0  0  0  0  0  0  0  0  0
   -3.3723    2.6612    7.1992 C   0  0  0  0  0  0  0  0  0  0  0  0
    1.3938    1.1987   18.3976 C   0  0  0  0  0  0  0  0  0  0  0  0
    1.2604    0.8740    5.3245 C   0  0  0  0  0  0  0  0  0  0  0  0
    2.2710    0.4094    1.8268 C   0  0  0  0  0  0  0  0  0  0  0  0
    1.5779    4.0586   16.3173 C   0  0  0  0  0  0  0  0  0  0  0  0
    3.2397   -0.5539    1.9610 C   0  0  0  0  0  0  0  0  0  0  0  0
    0.3302    0.6707   18.9898 N   0  0  0  0  0  0  0  0  0  0  0  0
   -0.9839    2.4075   18.0331 N   0  0  0  0  0  0  0  0  0  0  0  0
    2.5520    0.5970   18.5695 N   0  0  0  0  0  0  0  0  0  0  0  0
    2.2353    3.0492   16.9103 N   0  0  0  0  0  0  0  0  0  0  0  0
    0.2951    3.9953   16.6923 N   0  0  0  0  0  0  0  0  0  0  0  0
    0.1415    5.8238   10.0153 O   0  0  0  0  0  0  0  0  0  0  0  0
   -4.1308    4.7433   10.3856 O   0  0  0  0  0  0  0  0  0  0  0  0
    0.6387    4.9697    7.0137 O   0  0  0  0  0  0  0  0  0  0  0  0
   -0.7220    7.1149   16.7573 O   0  0  0  0  0  0  0  0  0  0  0  0
   -2.1558    6.9793    9.7808 O   0  0  0  0  0  0  0  0  0  0  0  0
   -3.1780    2.3559   10.0122 O   0  0  0  0  0  0  0  0  0  0  0  0
    0.7767    2.1435    5.2619 O   0  0  0  0  0  0  0  0  0  0  0  0
   -2.7112    6.9351   15.0040 O   0  0  0  0  0  0  0  0  0  0  0  0
   -1.7740    4.3859    9.7041 O   0  0  0  0  0  0  0  0  0  0  0  0
   -1.0050    0.6311    6.6133 O   0  0  0  0  0  0  0  0  0  0  0  0
   -1.1119    4.0889   14.9897 O   0  0  0  0  0  0  0  0  0  0  0  0
   -1.6145    4.1041    6.6700 O   0  0  0  0  0  0  0  0  0  0  0  0
   -1.5803    5.8414   11.8301 O   0  0  0  0  0  0  0  0  0  0  0  0
   -3.4808    3.8410    8.0289 O   0  0  0  0  0  0  0  0  0  0  0  0
    1.0578    0.1328    6.2759 O   0  0  0  0  0  0  0  0  0  0  0  0
   -1.3104    5.8441   10.2623 P   0  0  1  0  0  0  0  0  0  0  0  0
   -3.2373    3.8278    9.6304 P   0  0  2  0  0  0  0  0  0  0  0  0
  3  4  2  0
  1  4  1  0
  2  7  1  0
  5  8  1  0
  1  9  2  0
  7 10  1  0
  8 11  1  0
 10 13  1  0
 11 14  1  0
 12 15  1  0
 13 16  1  6
 14 17  1  1
 15 18  2  0
  1 19  1  0
  9 20  1  0
 20 22  2  0
  3 22  1  0
  6 23  2  0
 18 23  1  0
 12 24  2  0
  6 24  1  0
 18 25  1  0
 21 26  2  0
 15 26  1  0
  2 27  1  1
 21 27  1  0
 12 27  1  0
  5 30  1  1
  7 31  1  1
 19 34  1  0
  8 34  1  6
 10 35  1  1
 11 37  1  6
 13 38  1  0
  2 38  1  0
  5 39  1  0
 14 39  1  0
 16 40  1  0
 17 41  1  0
 19 42  2  0
 36 43  1  0
 28 43  2  0
 43 32  1  6
 40 43  1  0
 41 44  1  0
 29 44  2  0
 44 33  1  1
 36 44  1  0
M  END
