
     RDKit          3D

 11 11  0  0  0  0  0  0  0  0999 V2000
   11.5300    8.1339    0.9410 C   0  0  0  0  0  0  0  0  0  0  0  0
   11.5676    8.2409    2.3317 C   0  0  0  0  0  0  0  0  0  0  0  0
   12.7262    8.6887    2.9663 C   0  0  0  0  0  0  0  0  0  0  0  0
   13.8500    9.0213    2.2103 C   0  0  0  0  0  0  0  0  0  0  0  0
   13.8145    8.8922    0.8235 C   0  0  0  0  0  0  0  0  0  0  0  0
   12.6540    8.4657    0.1833 C   0  0  0  0  0  0  0  0  0  0  0  0
   14.9410    9.2279    0.1304 O   0  0  0  0  0  0  0  0  0  0  0  0
   15.3068    8.5869   -1.2931 P   0  0  0  0  0  5  0  0  0  0  0  0
   14.1845    9.0738   -2.3266 O   0  0  0  0  0  0  0  0  0  0  0  0
   14.9963    7.0216   -1.2118 O   0  0  0  0  0  0  0  0  0  0  0  0
   16.6591    8.9153   -1.8322 O   0  0  0  0  0  0  0  0  0  0  0  0
  1  2  4  0
  2  3  4  0
  3  4  4  0
  4  5  4  0
  1  6  4  0
  5  6  4  0
  5  7  1  0
  7  8  1  0
  8  9  1  0
  8 10  1  0
  8 11  2  0
M  END
