7NF0_BYN_B_702
     RDKit          3D

 37 40  0  0  0  0  0  0  0  0999 V2000
   -0.1917   10.9743   35.4897 C   0  0  0  0  0  0  0  0  0  0  0  0
    0.4959   12.1192   35.6032 N   0  0  0  0  0  0  0  0  0  0  0  0
    1.7882   12.1558   35.1740 C   0  0  0  0  0  0  0  0  0  0  0  0
    2.4122   11.0539   34.6276 C   0  0  0  0  0  0  0  0  0  0  0  0
    1.6392    9.9048   34.5408 C   0  0  0  0  0  0  0  0  0  0  0  0
    0.3645    9.8720   34.9650 N   0  0  0  0  0  0  0  0  0  0  0  0
    3.7700   11.0881   34.1620 N   0  0  0  0  0  0  0  0  0  0  0  0
    4.3527    9.9223   33.5895 C   0  0  0  0  0  0  0  0  0  0  0  0
    3.5651    8.7752   33.5077 C   0  0  0  0  0  0  0  0  0  0  0  0
    2.2221    8.7310   33.9670 N   0  0  0  0  0  0  0  0  0  0  0  0
    5.6752    9.9112   33.1091 C   0  0  0  0  0  0  0  0  0  0  0  0
    6.1926    8.7247   32.5472 C   0  0  0  0  0  0  0  0  0  0  0  0
    5.3725    7.5823   32.4829 C   0  0  0  0  0  0  0  0  0  0  0  0
    4.0808    7.6287   32.9622 C   0  0  0  0  0  0  0  0  0  0  0  0
    4.5268   12.3092   34.3337 C   0  0  1  0  0  0  0  0  0  0  0  0
    5.9843   11.9643   34.3163 C   0  0  0  0  0  0  0  0  0  0  0  0
    6.4682   11.0982   33.1800 C   0  0  2  0  0  0  0  0  0  0  0  0
   -1.5103   10.8865   35.9126 O   0  0  0  0  0  0  0  0  0  0  0  0
    5.9180    6.3208   31.8899 C   0  0  0  0  0  0  0  0  0  0  0  0
    7.5485    8.6297   32.0085 C   0  0  0  0  0  0  0  0  0  0  0  0
    4.2874   13.2871   33.4101 O   0  0  0  0  0  0  0  0  0  0  0  0
    6.2343   11.8672   31.8671 C   0  0  0  0  0  0  0  0  0  0  0  0
    7.9381   11.0704   33.3395 C   0  0  0  0  0  0  0  0  0  0  0  0
    1.3588    7.5762   33.8503 C   0  0  0  0  0  0  0  0  0  0  0  0
    2.3711   13.2558   35.3056 O   0  0  0  0  0  0  0  0  0  0  0  0
    0.9485    7.2213   32.4665 C   0  0  1  0  0  0  0  0  0  0  0  0
    0.1462    5.9278   32.5617 C   0  0  1  0  0  0  0  0  0  0  0  0
   -0.1886    5.4655   31.1537 C   0  0  1  0  0  0  0  0  0  0  0  0
   -0.8228    4.0806   31.2632 C   0  0  0  0  0  0  0  0  0  0  0  0
    0.1972    8.2257   31.8484 O   0  0  0  0  0  0  0  0  0  0  0  0
    0.9178    4.9782   33.2296 O   0  0  0  0  0  0  0  0  0  0  0  0
   -1.0930    6.3719   30.6309 O   0  0  0  0  0  0  0  0  0  0  0  0
   -1.1408    3.5835   30.0009 O   0  0  0  0  0  0  0  0  0  0  0  0
   -1.9486    2.1057   30.1231 P   0  0  2  0  0  0  0  0  0  0  0  0
   -1.0095    0.9823   30.4985 O   0  0  0  0  0  0  0  0  0  0  0  0
   -2.6299    1.6947   28.6296 O   0  0  0  0  0  0  0  0  0  0  0  0
   -3.1521    2.2122   31.2993 O   0  0  0  0  0  0  0  0  0  0  0  0
  1  2  1  0
  2  3  1  0
  3  4  1  0
  4  5  2  0
  5  6  1  0
  1  6  2  0
  4  7  1  0
  7  8  1  0
  8  9  2  0
  9 10  1  0
  5 10  1  0
  8 11  1  0
 11 12  2  0
 12 13  1  0
 13 14  2  0
  9 14  1  0
  7 15  1  0
 15 16  1  0
 11 17  1  0
 16 17  1  0
  1 18  1  0
 13 19  1  0
 12 20  1  0
 15 21  1  6
 17 22  1  6
 17 23  1  0
 10 24  1  0
  3 25  2  0
 24 26  1  0
 26 27  1  0
 27 28  1  0
 28 29  1  0
 26 30  1  1
 27 31  1  6
 28 32  1  1
 29 33  1  0
 33 34  1  0
 34 35  2  0
 34 36  1  6
 34 37  1  0
M  END
$$$$
