
     RDKit          3D

 20 21  0  0  0  0  0  0  0  0999 V2000
   18.7304   63.8963   34.9781 C   0  0  0  0  0  0  0  0  0  0  0  0
   17.9238   63.4832   33.7522 C   0  0  0  0  0  0  0  0  0  0  0  0
   16.8193   62.4917   34.0703 C   0  0  0  0  0  0  0  0  0  0  0  0
   17.2616   61.3669   34.9278 C   0  0  0  0  0  0  0  0  0  0  0  0
   17.8245   60.2216   34.3484 C   0  0  0  0  0  0  0  0  0  0  0  0
   18.2342   59.1527   35.1491 C   0  0  0  0  0  0  0  0  0  0  0  0
   18.0801   59.2347   36.5296 C   0  0  0  0  0  0  0  0  0  0  0  0
   18.4654   58.2145   37.3485 O   0  0  0  0  0  0  0  0  0  0  0  0
   17.5248   60.3636   37.1201 C   0  0  0  0  0  0  0  0  0  0  0  0
   17.1131   61.4300   36.3195 C   0  0  0  0  0  0  0  0  0  0  0  0
   15.5496   62.5607   33.5951 C   0  0  0  0  0  0  0  0  0  0  0  0
   14.5423   61.5232   33.9149 C   0  0  0  0  0  0  0  0  0  0  0  0
   13.5530   61.7643   34.8773 C   0  0  0  0  0  0  0  0  0  0  0  0
   12.6083   60.7811   35.1810 C   0  0  0  0  0  0  0  0  0  0  0  0
   12.6558   59.5593   34.5165 C   0  0  0  0  0  0  0  0  0  0  0  0
   11.7541   58.5714   34.7826 O   0  0  0  0  0  0  0  0  0  0  0  0
   13.6286   59.3058   33.5568 C   0  0  0  0  0  0  0  0  0  0  0  0
   14.5739   60.2873   33.2556 C   0  0  0  0  0  0  0  0  0  0  0  0
   15.0248   63.6346   32.6618 C   0  0  0  0  0  0  0  0  0  0  0  0
   13.9970   63.1005   31.6736 C   0  0  0  0  0  0  0  0  0  0  0  0
  1  2  1  0
  2  3  1  0
  3  4  1  0
  4  5  4  0
  5  6  4  0
  6  7  4  0
  7  8  1  0
  7  9  4  0
  4 10  4  0
  9 10  4  0
  3 11  2  3
 11 12  1  0
 12 13  4  0
 13 14  4  0
 14 15  4  0
 15 16  1  0
 15 17  4  0
 12 18  4  0
 17 18  4  0
 11 19  1  0
 19 20  1  0
M  END
