7OU8_1XI_BBB_801
     RDKit          3D

 23 25  0  0  0  0  0  0  0  0999 V2000
   -1.6613   54.3728   48.7467 C   0  0  2  0  0  0  0  0  0  0  0  0
   -1.7084   55.8065   48.2365 C   0  0  2  0  0  0  0  0  0  0  0  0
   -0.5180   56.0451   47.3082 C   0  0  1  0  0  0  0  0  0  0  0  0
    0.8378   55.1349   45.5169 N   0  0  0  0  0  0  0  0  0  0  0  0
   -1.8500   53.5812   47.5394 N   0  0  0  0  0  0  0  0  0  0  0  0
   -0.7443   53.5814   46.6142 C   0  0  0  0  0  0  0  0  0  0  0  0
    3.2416   55.2877   45.3350 C   0  0  0  0  0  0  0  0  0  0  0  0
    2.0171   55.0066   46.1533 C   0  0  0  0  0  0  0  0  0  0  0  0
    2.1147   54.5678   47.3100 O   0  0  0  0  0  0  0  0  0  0  0  0
   -0.4620   55.0173   46.1666 C   0  0  1  0  0  0  0  0  0  0  0  0
   -3.0884   53.1925   47.2742 C   0  0  0  0  0  0  0  0  0  0  0  0
   -3.4491   52.8021   46.0573 N   0  0  0  0  0  0  0  0  0  0  0  0
   -4.8464   52.4077   45.8595 C   0  0  0  0  0  0  0  0  0  0  0  0
   -5.0905   51.7926   44.4912 C   0  0  0  0  0  0  0  0  0  0  0  0
   -6.3663   51.3703   44.1726 C   0  0  0  0  0  0  0  0  0  0  0  0
   -6.6307   50.8404   42.9124 C   0  0  0  0  0  0  0  0  0  0  0  0
   -5.6221   50.7041   41.9932 C   0  0  0  0  0  0  0  0  0  0  0  0
   -4.3418   51.0619   42.3111 C   0  0  0  0  0  0  0  0  0  0  0  0
   -4.0807   51.6416   43.5534 C   0  0  0  0  0  0  0  0  0  0  0  0
   -4.1453   53.4106   48.6266 S   0  0  0  0  0  0  0  0  0  0  0  0
   -2.7673   53.8940   49.6900 C   0  0  0  0  0  0  0  0  0  0  0  0
   -1.6632   56.7281   49.3360 O   0  0  0  0  0  0  0  0  0  0  0  0
   -0.6151   57.3270   46.6842 O   0  0  0  0  0  0  0  0  0  0  0  0
  1  2  1  0
  2  3  1  0
  1  5  1  0
  5  6  1  0
  7  8  1  0
  4  8  1  0
  8  9  2  0
 10  4  1  1
  3 10  1  0
  6 10  1  0
  5 11  1  0
 11 12  2  0
 12 13  1  0
 13 14  1  0
 14 15  2  0
 15 16  1  0
 16 17  2  0
 17 18  1  0
 18 19  2  0
 14 19  1  0
 11 20  1  0
  1 21  1  1
 20 21  1  0
  2 22  1  1
  3 23  1  6
M  END
