7SFO_98L_A_601
     RDKit          3D

 39 42  0  0  0  0  0  0  0  0999 V2000
   -0.6314   -3.2145    3.0950 N   0  0  0  0  0  0  0  0  0  0  0  0
   -0.4343   -0.9358   -0.4337 N   0  0  0  0  0  0  0  0  0  0  0  0
    2.1868   -2.0740   -1.4441 C   0  0  0  0  0  0  0  0  0  0  0  0
    2.5823   -1.4728   -0.2370 C   0  0  0  0  0  0  0  0  0  0  0  0
    3.5089   -0.4181   -0.2637 C   0  0  0  0  0  0  0  0  0  0  0  0
    2.0747   -1.9812    1.0522 C   0  0  0  0  0  0  0  0  0  0  0  0
    0.5734   -2.8567    2.5941 C   0  0  0  0  0  0  0  0  0  0  0  0
   -1.7539   -2.8858    2.4016 C   0  0  0  0  0  0  0  0  0  0  0  0
   -1.5800   -0.8010   -1.3294 C   0  0  0  0  0  0  0  0  0  0  0  0
   -2.2002    1.5900   -0.8342 C   0  0  0  0  0  0  0  0  0  0  0  0
   -4.2918    2.1522    0.2526 C   0  0  0  0  0  0  0  0  0  0  0  0
    4.0057    0.0510   -1.4838 C   0  0  0  0  0  0  0  0  0  0  0  0
   -0.4600   -1.7944    0.7169 C   0  0  0  0  0  0  0  0  0  0  0  0
    2.9494   -2.4595    2.0338 C   0  0  0  0  0  0  0  0  0  0  0  0
   -2.5383    0.2274   -0.7942 C   0  0  0  0  0  0  0  0  0  0  0  0
   -3.0739    2.5517   -0.3144 C   0  0  0  0  0  0  0  0  0  0  0  0
   -4.6314    0.7975    0.3001 C   0  0  0  0  0  0  0  0  0  0  0  0
   -3.7590   -0.1631   -0.2193 C   0  0  0  0  0  0  0  0  0  0  0  0
    3.5914   -0.5376   -2.6820 C   0  0  0  0  0  0  0  0  0  0  0  0
    2.6847   -1.6009   -2.6619 C   0  0  0  0  0  0  0  0  0  0  0  0
    0.7151   -2.1799    1.3944 C   0  0  0  0  0  0  0  0  0  0  0  0
   -1.6616   -2.1776    1.2403 N   0  0  0  0  0  0  0  0  0  0  0  0
   -2.7224    3.8987   -0.3648 O   0  0  0  0  0  0  0  0  0  0  0  0
    2.0653   -3.1723    3.2829 S   0  0  0  0  0  0  0  0  0  0  0  0
   -3.3263   -3.3397    3.0202 Cl  0  0  0  0  0  0  0  0  0  0  0  0
    0.3334   -0.2361   -0.5331 H   0  0  0  0  0  0  0  0  0  0  0  0
    1.4926   -2.9055   -1.4411 H   0  0  0  0  0  0  0  0  0  0  0  0
    3.8372    0.0467    0.6579 H   0  0  0  0  0  0  0  0  0  0  0  0
   -2.0768   -1.7870   -1.4630 H   0  0  0  0  0  0  0  0  0  0  0  0
   -1.2220   -0.4825   -2.3323 H   0  0  0  0  0  0  0  0  0  0  0  0
   -1.2576    1.9039   -1.2664 H   0  0  0  0  0  0  0  0  0  0  0  0
   -4.9733    2.8893    0.6577 H   0  0  0  0  0  0  0  0  0  0  0  0
    4.7126    0.8704   -1.5004 H   0  0  0  0  0  0  0  0  0  0  0  0
    4.0298   -2.4352    1.9762 H   0  0  0  0  0  0  0  0  0  0  0  0
   -5.5710    0.4913    0.7416 H   0  0  0  0  0  0  0  0  0  0  0  0
   -4.0348   -1.2092   -0.1705 H   0  0  0  0  0  0  0  0  0  0  0  0
    3.9768   -0.1730   -3.6254 H   0  0  0  0  0  0  0  0  0  0  0  0
    2.3703   -2.0611   -3.5897 H   0  0  0  0  0  0  0  0  0  0  0  0
   -3.3325    4.6192    0.0033 H   0  0  0  0  0  0  0  0  0  0  0  0
  3  4  2  0
  4  5  1  0
  4  6  1  0
  1  7  2  0
  1  8  1  0
  2  9  1  0
  5 12  2  0
  2 13  1  0
  6 14  2  0
 10 15  2  0
  9 15  1  0
 11 16  2  0
 10 16  1  0
 11 17  1  0
 17 18  2  0
 15 18  1  0
 12 19  1  0
 19 20  2  0
  3 20  1  0
  6 21  1  0
 13 21  2  0
  7 21  1  0
 13 22  1  0
  8 22  2  0
 16 23  1  0
 14 24  1  0
  7 24  1  0
  8 25  1  0
  2 26  1  0
  3 27  1  0
  5 28  1  0
  9 29  1  0
  9 30  1  0
 10 31  1  0
 11 32  1  0
 12 33  1  0
 14 34  1  0
 17 35  1  0
 18 36  1  0
 19 37  1  0
 20 38  1  0
 23 39  1  0
M  END
