1G9V_RQ3_A_801
     RDKit          3D

 48 49  0  0  0  0  0  0  0  0999 V2000
   13.6475   14.5052   37.2973 C   0  0  0  0  0  0  0  0  0  0  0  0
   13.3820   14.7589   35.9535 O   0  0  0  0  0  0  0  0  0  0  0  0
   14.7168   13.9166   37.6160 O   0  0  0  0  0  0  0  0  0  0  0  0
   12.6871   14.9853   38.3633 C   0  0  2  0  0  0  0  0  0  0  0  0
   13.4090   16.0885   39.1633 C   0  0  1  0  0  0  0  0  0  0  0  0
   12.3013   13.7819   39.2510 C   0  0  2  0  0  0  0  0  0  0  0  0
   11.5336   15.5049   37.6776 O   0  0  0  0  0  0  0  0  0  0  0  0
   10.6280   16.5218   38.0435 C   0  0  0  0  0  0  0  0  0  0  0  0
   10.5836   17.1371   39.3119 C   0  0  0  0  0  0  0  0  0  0  0  0
    9.6498   18.1438   39.5784 C   0  0  0  0  0  0  0  0  0  0  0  0
    8.7349   18.5458   38.5942 C   0  0  0  0  0  0  0  0  0  0  0  0
    9.7187   16.9413   37.0623 C   0  0  0  0  0  0  0  0  0  0  0  0
    8.7824   17.9437   37.3297 C   0  0  0  0  0  0  0  0  0  0  0  0
    7.7592   19.6560   38.8704 C   0  0  1  0  0  0  0  0  0  0  0  0
    8.4891   20.9600   38.9670 C   0  0  0  0  0  0  0  0  0  0  0  0
    9.2407   21.1767   39.9540 O   0  0  0  0  0  0  0  0  0  0  0  0
    8.3410   21.9461   37.9322 N   0  0  0  0  0  0  0  0  0  0  0  0
    9.1839   23.1031   37.8129 C   0  0  0  0  0  0  0  0  0  0  0  0
   10.4426   23.1506   38.4381 C   0  0  0  0  0  0  0  0  0  0  0  0
   11.2623   24.2802   38.2995 C   0  0  0  0  0  0  0  0  0  0  0  0
   10.8362   25.3497   37.4977 C   0  0  0  0  0  0  0  0  0  0  0  0
    8.7711   24.1766   37.0131 C   0  0  0  0  0  0  0  0  0  0  0  0
    9.5953   25.2984   36.8451 C   0  0  0  0  0  0  0  0  0  0  0  0
   12.6206   24.3082   38.9366 C   0  0  2  0  0  0  0  0  0  0  0  0
    9.1232   26.4614   36.0225 C   0  0  2  0  0  0  0  0  0  0  0  0
   13.9920   14.4049   35.2270 H   0  0  0  0  0  0  0  0  0  0  0  0
   12.7845   16.9843   39.3252 H   0  0  0  0  0  0  0  0  0  0  0  0
   13.6902   15.7172   40.1729 H   0  0  0  0  0  0  0  0  0  0  0  0
   14.3363   16.3992   38.6338 H   0  0  0  0  0  0  0  0  0  0  0  0
   11.6648   13.0749   38.6747 H   0  0  0  0  0  0  0  0  0  0  0  0
   11.7401   14.0796   40.1545 H   0  0  0  0  0  0  0  0  0  0  0  0
   13.2089   13.2401   39.5955 H   0  0  0  0  0  0  0  0  0  0  0  0
   11.2504   16.8691   40.1094 H   0  0  0  0  0  0  0  0  0  0  0  0
    9.6410   18.6116   40.5555 H   0  0  0  0  0  0  0  0  0  0  0  0
    9.7397   16.4853   36.0806 H   0  0  0  0  0  0  0  0  0  0  0  0
    8.0975   18.2538   36.5494 H   0  0  0  0  0  0  0  0  0  0  0  0
    6.9976   19.7063   38.0606 H   0  0  0  0  0  0  0  0  0  0  0  0
    7.2088   19.4633   39.8183 H   0  0  0  0  0  0  0  0  0  0  0  0
    7.5341   21.8538   37.2733 H   0  0  0  0  0  0  0  0  0  0  0  0
   10.7945   22.3022   39.0161 H   0  0  0  0  0  0  0  0  0  0  0  0
   11.4738   26.2180   37.3743 H   0  0  0  0  0  0  0  0  0  0  0  0
    7.8045   24.1379   36.5250 H   0  0  0  0  0  0  0  0  0  0  0  0
   12.5404   24.1696   40.0350 H   0  0  0  0  0  0  0  0  0  0  0  0
   13.1238   25.2815   38.7486 H   0  0  0  0  0  0  0  0  0  0  0  0
   13.2420   23.4916   38.5139 H   0  0  0  0  0  0  0  0  0  0  0  0
    8.3694   27.0399   36.5994 H   0  0  0  0  0  0  0  0  0  0  0  0
    8.6622   26.1090   35.0743 H   0  0  0  0  0  0  0  0  0  0  0  0
    9.9706   27.1306   35.7617 H   0  0  0  0  0  0  0  0  0  0  0  0
  1  2  1  0
  1  3  2  0
  1  4  1  0
  4  5  1  0
  4  6  1  0
  4  7  1  6
  7  8  1  0
  8  9  2  0
  9 10  1  0
 10 11  2  0
  8 12  1  0
 11 13  1  0
 12 13  2  0
 11 14  1  0
 14 15  1  0
 15 16  2  0
 15 17  1  0
 17 18  1  0
 18 19  2  0
 19 20  1  0
 20 21  2  0
 18 22  1  0
 21 23  1  0
 22 23  2  0
 20 24  1  0
 23 25  1  0
  2 26  1  0
  5 27  1  1
  5 28  1  0
  5 29  1  0
  6 30  1  6
  6 31  1  0
  6 32  1  0
  9 33  1  0
 10 34  1  0
 12 35  1  0
 13 36  1  0
 14 37  1  6
 14 38  1  0
 17 39  1  0
 19 40  1  0
 21 41  1  0
 22 42  1  0
 24 43  1  1
 24 44  1  0
 24 45  1  0
 25 46  1  1
 25 47  1  0
 25 48  1  0
M  END
