
     RDKit          3D

 35 36  0  0  0  0  0  0  0  0999 V2000
   38.4296   37.6125   -5.1764 O   0  0  0  0  0  0  0  0  0  0  0  0
   33.1669   40.5283   -9.1908 O   0  0  0  0  0  0  0  0  0  0  0  0
   39.2868   35.8832   -0.5407 C   0  0  0  0  0  0  0  0  0  0  0  0
   39.0446   36.3804   -1.9660 C   0  0  0  0  0  0  0  0  0  0  0  0
   38.5552   35.2370   -2.8581 C   0  0  0  0  0  0  0  0  0  0  0  0
   35.2335   39.9639   -6.3737 C   0  0  1  0  0  0  0  0  0  0  0  0
   37.4016   39.6025   -3.2843 N   0  0  0  0  0  0  0  0  0  0  0  0
   35.7416   41.2432   -2.5614 C   0  0  0  0  0  0  0  0  0  0  0  0
   37.2020   40.7715   -2.5825 C   0  0  0  0  0  0  0  0  0  0  0  0
   38.5432   38.7294   -2.9759 C   0  0  1  0  0  0  0  0  0  0  0  0
   38.1050   37.6050   -2.0240 C   0  0  0  0  0  0  0  0  0  0  0  0
   38.1167   41.3891   -2.0351 O   0  0  0  0  0  0  0  0  0  0  0  0
   35.3983   38.5495   -5.7935 C   0  0  0  0  0  0  0  0  0  0  0  0
   34.5643   37.4625   -6.4334 C   0  0  0  0  0  0  0  0  0  0  0  0
   32.4227   36.3661   -6.7706 C   0  0  0  0  0  0  0  0  0  0  0  0
   33.1851   37.3845   -6.1953 C   0  0  0  0  0  0  0  0  0  0  0  0
   33.0292   35.4171   -7.5915 C   0  0  0  0  0  0  0  0  0  0  0  0
   31.7039   39.3928  -10.7141 C   0  0  0  0  0  0  0  0  0  0  0  0
   31.1311   39.1972  -11.9802 C   0  0  0  0  0  0  0  0  0  0  0  0
   32.9653   40.2043  -10.5707 C   0  0  0  0  0  0  0  0  0  0  0  0
   34.1218   39.8133   -8.5569 C   0  0  0  0  0  0  0  0  0  0  0  0
   35.1579   36.5160   -7.2800 C   0  0  0  0  0  0  0  0  0  0  0  0
   34.3949   35.4954   -7.8513 C   0  0  0  0  0  0  0  0  0  0  0  0
   39.0810   38.1335   -4.2875 C   0  0  0  0  0  0  0  0  0  0  0  0
   34.1747   42.4008   -5.4755 O   0  0  0  0  0  0  0  0  0  0  0  0
   29.9546   38.4590  -12.1143 C   0  0  0  0  0  0  0  0  0  0  0  0
   29.3401   37.9117  -10.9885 C   0  0  0  0  0  0  0  0  0  0  0  0
   29.8956   38.1105   -9.7253 C   0  0  0  0  0  0  0  0  0  0  0  0
   36.6582   41.9220   -5.1303 O   0  0  0  0  0  0  0  0  0  0  0  0
   34.9315   39.0696   -9.0837 O   0  0  0  0  0  0  0  0  0  0  0  0
   31.0704   38.8526   -9.5867 C   0  0  0  0  0  0  0  0  0  0  0  0
   34.9760   40.6503   -3.6608 N   0  0  0  0  0  0  0  0  0  0  0  0
   34.0404   40.0688   -7.2215 N   0  0  0  0  0  0  0  0  0  0  0  0
   40.4176   38.2877   -4.4523 O   0  0  0  0  0  0  0  0  0  0  0  0
   35.1644   41.3238   -5.1523 P   0  0  2  0  0  5  0  0  0  0  0  0
  3  4  1  0
  4  5  1  0
  7  9  1  0
  8  9  1  0
  7 10  1  0
 10 11  1  1
  4 11  1  0
  9 12  2  0
  6 13  1  1
 13 14  1  0
 14 16  4  0
 15 16  4  0
 15 17  4  0
 18 19  4  0
  2 20  1  0
 18 20  1  0
  2 21  1  0
 14 22  4  0
 22 23  4  0
 17 23  4  0
  1 24  2  0
 10 24  1  0
 19 26  4  0
 26 27  4  0
 27 28  4  0
 21 30  2  0
 18 31  4  0
 28 31  4  0
  8 32  1  0
  6 33  1  0
 21 33  1  0
 24 34  1  0
 25 35  2  0
 32 35  1  0
 35 29  1  1
  6 35  1  0
M  END
