1R58_AO5_A_501
     RDKit          3D

 23 23  0  0  0  0  0  0  0  0999 V2000
   21.4124   23.8107   22.5818 C   0  0  2  0  0  0  0  0  0  0  0  0
   22.5784   23.5083   21.6400 C   0  0  0  0  0  0  0  0  0  0  0  0
   20.5512   22.5692   22.7572 C   0  0  0  0  0  0  0  0  0  0  0  0
   20.4106   25.1453   21.9901 S   0  0  0  0  0  0  0  0  0  0  0  0
   19.9886   24.6125   20.3319 C   0  0  0  0  0  0  0  0  0  0  0  0
   19.0811   25.5967   19.6092 C   0  0  0  0  0  0  0  0  0  0  0  0
   19.6377   25.9059   18.2248 C   0  0  1  0  0  0  0  0  0  0  0  0
   19.7112   24.5239   17.7155 N   0  0  0  0  0  0  0  0  0  0  0  0
   18.6520   26.8097   17.3854 C   0  0  2  0  0  0  0  0  0  0  0  0
   18.5060   26.3232   16.0561 O   0  0  0  0  0  0  0  0  0  0  0  0
   19.1774   28.2270   17.3185 C   0  0  0  0  0  0  0  0  0  0  0  0
   20.1691   28.5435   16.6885 O   0  0  0  0  0  0  0  0  0  0  0  0
   18.3720   29.1640   18.1390 N   0  0  0  0  0  0  0  0  0  0  0  0
   17.3472   30.0252   17.5439 N   0  0  0  0  0  0  0  0  0  0  0  0
   17.6483   30.9734   16.5958 C   0  0  0  0  0  0  0  0  0  0  0  0
   18.8482   31.1867   16.3246 O   0  0  0  0  0  0  0  0  0  0  0  0
   16.5539   31.7261   15.8999 C   0  0  0  0  0  0  0  0  0  0  0  0
   16.7388   32.9059   14.9896 C   0  0  0  0  0  0  0  0  0  0  0  0
   15.5394   33.5483   14.3725 C   0  0  0  0  0  0  0  0  0  0  0  0
   14.1682   33.0304   14.6555 C   0  0  0  0  0  0  0  0  0  0  0  0
   14.0186   31.8717   15.5544 C   0  0  0  0  0  0  0  0  0  0  0  0
   15.1671   31.2296   16.1641 C   0  0  0  0  0  0  0  0  0  0  0  0
   12.4794   31.2254   15.9281 Cl  0  0  0  0  0  0  0  0  0  0  0  0
  1  2  1  6
  1  3  1  0
  1  4  1  0
  4  5  1  0
  5  6  1  0
  6  7  1  0
  7  8  1  6
  7  9  1  0
  9 10  1  6
  9 11  1  0
 11 12  2  0
 11 13  1  0
 13 14  1  0
 14 15  1  0
 15 16  2  0
 15 17  1  0
 17 18  2  0
 18 19  1  0
 19 20  2  0
 20 21  1  0
 17 22  1  0
 21 22  2  0
 21 23  1  0
M  END
