7AS1_21G_A_501
     RDKit          3D

 48 52  0  0  0  0  0  0  0  0999 V2000
   -4.1667   12.4083   -2.4472 C   0  0  0  0  0  0  0  0  0  0  0  0
   -4.8008   11.4093   -3.2055 C   0  0  0  0  0  0  0  0  0  0  0  0
   -5.6403   11.7710   -4.2822 C   0  0  0  0  0  0  0  0  0  0  0  0
   -5.2235   14.0416   -3.8543 C   0  0  0  0  0  0  0  0  0  0  0  0
   -4.4019   13.7370   -2.8029 C   0  0  0  0  0  0  0  0  0  0  0  0
   -3.9513   14.9463   -2.2934 C   0  0  0  0  0  0  0  0  0  0  0  0
   -5.8410   13.0862   -4.5934 N   0  0  0  0  0  0  0  0  0  0  0  0
   -4.5441   15.9281   -3.0889 C   0  0  0  0  0  0  0  0  0  0  0  0
   -5.3218   15.3662   -4.0420 N   0  0  0  0  0  0  0  0  0  0  0  0
   -3.0350   15.1865   -1.1630 C   0  0  0  0  0  0  0  0  0  0  0  0
   -2.7616   16.4595   -0.7690 N   0  0  0  0  0  0  0  0  0  0  0  0
   -1.9163   16.7069    0.2645 C   0  0  0  0  0  0  0  0  0  0  0  0
   -1.3115   15.6473    0.9397 C   0  0  0  0  0  0  0  0  0  0  0  0
   -1.5981   14.3395    0.5281 C   0  0  0  0  0  0  0  0  0  0  0  0
   -2.4543   14.1452   -0.5114 N   0  0  0  0  0  0  0  0  0  0  0  0
   -0.9983   13.2144    1.1921 N   0  0  0  0  0  0  0  0  0  0  0  0
   -1.2510   11.8288    0.7670 C   0  0  2  0  0  0  0  0  0  0  0  0
   -0.6945   10.7917    1.8117 C   0  0  2  0  0  0  0  0  0  0  0  0
    0.2344    9.7622    1.1043 C   0  0  2  0  0  0  0  0  0  0  0  0
    1.4319   10.5406    0.5078 C   0  0  1  0  0  0  0  0  0  0  0  0
    0.9336   11.6101   -0.5004 C   0  0  1  0  0  0  0  0  0  0  0  0
   -0.6101   11.5650   -0.6262 C   0  0  1  0  0  0  0  0  0  0  0  0
   -1.0175   10.1440   -1.0828 C   0  0  2  0  0  0  0  0  0  0  0  0
   -0.5151    9.0827   -0.0699 C   0  0  1  0  0  0  0  0  0  0  0  0
   -1.7916   10.1020    2.5872 C   0  0  0  0  0  0  0  0  0  0  0  0
   -2.1275    8.7763    2.3232 O   0  0  0  0  0  0  0  0  0  0  0  0
   -2.3840   10.7194    3.5127 O   0  0  0  0  0  0  0  0  0  0  0  0
   -0.4646   15.8927    1.9707 F   0  0  0  0  0  0  0  0  0  0  0  0
   -4.6067   10.1020   -2.9038 F   0  0  0  0  0  0  0  0  0  0  0  0
   -3.5252   12.1398   -1.6222 H   0  0  0  0  0  0  0  0  0  0  0  0
   -6.1290   11.0030   -4.8667 H   0  0  0  0  0  0  0  0  0  0  0  0
   -4.4115   16.9965   -2.9767 H   0  0  0  0  0  0  0  0  0  0  0  0
   -5.8797   15.8621   -4.7720 H   0  0  0  0  0  0  0  0  0  0  0  0
   -1.7136   17.7276    0.5603 H   0  0  0  0  0  0  0  0  0  0  0  0
   -0.3573   13.4000    1.9961 H   0  0  0  0  0  0  0  0  0  0  0  0
   -2.3514   11.7022    0.6653 H   0  0  0  0  0  0  0  0  0  0  0  0
   -0.0674   11.3186    2.5649 H   0  0  0  0  0  0  0  0  0  0  0  0
    0.6008    8.9981    1.8249 H   0  0  0  0  0  0  0  0  0  0  0  0
    2.0082   11.0296    1.3236 H   0  0  0  0  0  0  0  0  0  0  0  0
    2.1218    9.8330   -0.0025 H   0  0  0  0  0  0  0  0  0  0  0  0
    1.2564   12.6214   -0.1707 H   0  0  0  0  0  0  0  0  0  0  0  0
    1.3923   11.4288   -1.4971 H   0  0  0  0  0  0  0  0  0  0  0  0
   -0.9549   12.3114   -1.3738 H   0  0  0  0  0  0  0  0  0  0  0  0
   -0.5896    9.9386   -2.0884 H   0  0  0  0  0  0  0  0  0  0  0  0
   -2.1234   10.0806   -1.1764 H   0  0  0  0  0  0  0  0  0  0  0  0
    0.1700    8.3728   -0.5832 H   0  0  0  0  0  0  0  0  0  0  0  0
   -1.3670    8.4818    0.3111 H   0  0  0  0  0  0  0  0  0  0  0  0
   -3.0875    8.5092    2.1420 H   0  0  0  0  0  0  0  0  0  0  0  0
  1  2  2  0
  2  3  1  0
  4  5  2  0
  1  5  1  0
  5  6  1  0
  4  7  1  0
  3  7  2  0
  6  8  2  0
  4  9  1  0
  8  9  1  0
  6 10  1  0
 10 11  2  0
 11 12  1  0
 12 13  2  0
 13 14  1  0
 10 15  1  0
 14 15  2  0
 14 16  1  0
 17 16  1  0
 17 18  1  0
 18 19  1  0
 19 20  1  0
 20 21  1  0
 17 22  1  0
 22 21  1  0
 22 23  1  0
 23 24  1  0
 19 24  1  0
 18 25  1  0
 25 26  1  0
 25 27  2  0
 13 28  1  0
  2 29  1  0
  1 30  1  0
  3 31  1  0
  8 32  1  0
  9 33  1  0
 12 34  1  0
 16 35  1  0
 17 36  1  6
 18 37  1  1
 19 38  1  1
 20 39  1  1
 20 40  1  0
 21 41  1  1
 21 42  1  0
 22 43  1  6
 23 44  1  6
 23 45  1  0
 24 46  1  6
 24 47  1  0
 26 48  1  0
M  END
