7NLV_UJE_BBB_201
     RDKit          3D

 45 47  0  0  0  0  0  0  0  0999 V2000
   -5.4891   13.5723   23.4224 O   0  0  0  0  0  0  0  0  0  0  0  0
   -3.7679    8.5691   17.2938 O   0  0  0  0  0  0  0  0  0  0  0  0
   -6.2301   13.3287   24.4134 C   0  0  0  0  0  0  0  0  0  0  0  0
   -6.7481   11.9378   24.6223 C   0  0  1  0  0  0  0  0  0  0  0  0
   -6.1392   10.9807   23.5896 C   0  0  2  0  0  0  0  0  0  0  0  0
   -5.0159   11.6263   22.7576 C   0  0  1  0  0  0  0  0  0  0  0  0
   -5.0346   11.2967   21.2507 C   0  0  2  0  0  0  0  0  0  0  0  0
   -3.8455   11.8800   20.4585 C   0  0  2  0  0  0  0  0  0  0  0  0
   -4.3988   12.9081   19.0659 S   0  0  0  0  0  0  0  0  0  0  0  0
   -2.7237   12.8169   18.3771 C   0  0  1  0  0  0  0  0  0  0  0  0
   -2.1762   11.4151   18.6436 C   0  0  2  0  0  0  0  0  0  0  0  0
   -2.4888   10.5262   17.5287 N   0  0  0  0  0  0  0  0  0  0  0  0
   -3.3296    9.5066   18.0101 C   0  0  0  0  0  0  0  0  0  0  0  0
   -3.6172    9.6393   19.3808 N   0  0  0  0  0  0  0  0  0  0  0  0
   -2.8998   10.8118   19.8822 C   0  0  2  0  0  0  0  0  0  0  0  0
   -6.6186   14.3829   25.3055 N   0  0  0  0  0  0  0  0  0  0  0  0
   -7.7725   15.2455   25.0307 C   0  0  1  0  0  0  0  0  0  0  0  0
   -8.1474   15.2544   23.5643 C   0  0  2  0  0  0  0  0  0  0  0  0
   -9.6407   15.5302   23.5751 C   0  0  1  0  0  0  0  0  0  0  0  0
  -10.1753   15.1027   24.8721 N   0  0  0  0  0  0  0  0  0  0  0  0
   -9.0334   14.7387   25.7142 C   0  0  2  0  0  0  0  0  0  0  0  0
   -6.4849   11.6079   25.6499 H   0  0  0  0  0  0  0  0  0  0  0  0
   -7.8559   11.9409   24.5319 H   0  0  0  0  0  0  0  0  0  0  0  0
   -6.9336   10.5808   22.9246 H   0  0  0  0  0  0  0  0  0  0  0  0
   -5.6999   10.1087   24.1230 H   0  0  0  0  0  0  0  0  0  0  0  0
   -5.0826   12.7303   22.8720 H   0  0  0  0  0  0  0  0  0  0  0  0
   -4.0378   11.3220   23.1878 H   0  0  0  0  0  0  0  0  0  0  0  0
   -5.9820   11.7036   20.8351 H   0  0  0  0  0  0  0  0  0  0  0  0
   -5.0698   10.1952   21.1124 H   0  0  0  0  0  0  0  0  0  0  0  0
   -3.2348   12.5191   21.1302 H   0  0  0  0  0  0  0  0  0  0  0  0
   -2.7401   13.0532   17.2918 H   0  0  0  0  0  0  0  0  0  0  0  0
   -2.0896   13.5691   18.8936 H   0  0  0  0  0  0  0  0  0  0  0  0
   -1.0754   11.4464   18.7971 H   0  0  0  0  0  0  0  0  0  0  0  0
   -2.1435   10.6224   16.5478 H   0  0  0  0  0  0  0  0  0  0  0  0
   -4.1347    8.9396   19.9582 H   0  0  0  0  0  0  0  0  0  0  0  0
   -2.1624   10.4896   20.6500 H   0  0  0  0  0  0  0  0  0  0  0  0
   -6.0867   14.4933   26.1989 H   0  0  0  0  0  0  0  0  0  0  0  0
   -7.5559   16.2878   25.3579 H   0  0  0  0  0  0  0  0  0  0  0  0
   -7.9657   14.2591   23.1002 H   0  0  0  0  0  0  0  0  0  0  0  0
   -7.5882   16.0351   23.0042 H   0  0  0  0  0  0  0  0  0  0  0  0
   -9.8197   16.6191   23.4199 H   0  0  0  0  0  0  0  0  0  0  0  0
  -10.1457   14.9703   22.7592 H   0  0  0  0  0  0  0  0  0  0  0  0
  -10.6681   15.9153   25.3128 H   0  0  0  0  0  0  0  0  0  0  0  0
   -9.1314   15.1743   26.7339 H   0  0  0  0  0  0  0  0  0  0  0  0
   -9.0043   13.6308   25.8067 H   0  0  0  0  0  0  0  0  0  0  0  0
  1  3  2  0
  3  4  1  0
  4  5  1  0
  5  6  1  0
  6  7  1  0
  8  7  1  0
  8  9  1  0
  9 10  1  0
 11 10  1  0
 11 12  1  0
 12 13  1  0
  2 13  2  0
 13 14  1  0
 11 15  1  0
 15 14  1  0
  8 15  1  0
  3 16  1  0
 17 16  1  0
 17 18  1  0
 18 19  1  0
 19 20  1  0
 17 21  1  0
 20 21  1  0
  4 22  1  1
  4 23  1  0
  5 24  1  6
  5 25  1  0
  6 26  1  6
  6 27  1  0
  7 28  1  6
  7 29  1  0
  8 30  1  1
 10 31  1  6
 10 32  1  0
 11 33  1  1
 12 34  1  0
 14 35  1  0
 15 36  1  1
 16 37  1  0
 17 38  1  1
 18 39  1  6
 18 40  1  0
 19 41  1  6
 19 42  1  0
 20 43  1  0
 21 44  1  1
 21 45  1  0
M  END
