7MMH_ZJY_A_1202
     RDKit          3D

 57 63  0  0  0  0  0  0  0  0999 V2000
  -17.4472   15.0033  -10.4525 C   0  0  0  0  0  0  0  0  0  0  0  0
  -21.1339   16.3883  -14.0780 C   0  0  0  0  0  0  0  0  0  0  0  0
  -14.2862   13.5108  -14.8334 C   0  0  0  0  0  0  0  0  0  0  0  0
  -12.3704   13.2266  -16.7243 C   0  0  0  0  0  0  0  0  0  0  0  0
  -14.3688   14.2409  -16.0252 C   0  0  0  0  0  0  0  0  0  0  0  0
  -10.2298   11.4818  -16.3000 C   0  0  0  0  0  0  0  0  0  0  0  0
  -16.7225   12.6099  -10.9535 C   0  0  1  0  0  0  0  0  0  0  0  0
  -16.1360   12.1490  -12.2880 C   0  0  0  0  0  0  0  0  0  0  0  0
  -15.1346   13.1931  -12.6085 C   0  0  2  0  0  0  0  0  0  0  0  0
  -15.2449   14.2675  -11.5703 C   0  0  0  0  0  0  0  0  0  0  0  0
  -15.9034   11.9929   -9.8577 C   0  0  0  0  0  0  0  0  0  0  0  0
  -17.3780   11.5546   -7.8155 C   0  0  2  0  0  0  0  0  0  0  0  0
  -18.8944   15.1796  -10.6243 C   0  0  2  0  0  0  0  0  0  0  0  0
  -20.2967   14.6956  -12.6193 C   0  0  0  0  0  0  0  0  0  0  0  0
  -19.5843   15.5147   -9.3199 C   0  0  0  0  0  0  0  0  0  0  0  0
  -20.9600   14.9776   -9.1662 C   0  0  0  0  0  0  0  0  0  0  0  0
  -12.2831   12.4965  -15.5382 C   0  0  0  0  0  0  0  0  0  0  0  0
  -11.2227   11.6379  -15.3383 C   0  0  0  0  0  0  0  0  0  0  0  0
  -10.3445   12.2265  -17.4778 C   0  0  0  0  0  0  0  0  0  0  0  0
  -11.3953   13.0901  -17.6986 C   0  0  0  0  0  0  0  0  0  0  0  0
   -9.2197    9.6759  -15.0432 C   0  0  0  0  0  0  0  0  0  0  0  0
  -15.4963   15.1733  -16.2718 C   0  0  0  0  0  0  0  0  0  0  0  0
  -17.2710   10.1522   -7.2901 C   0  0  0  0  0  0  0  0  0  0  0  0
  -13.8780   10.5299   -5.4682 C   0  0  2  0  0  0  0  0  0  0  0  0
  -13.3256   10.4863   -4.0819 C   0  0  0  0  0  0  0  0  0  0  0  0
  -12.4384   10.1823   -5.2515 C   0  0  0  0  0  0  0  0  0  0  0  0
  -14.2135   11.9087   -5.9973 C   0  0  0  0  0  0  0  0  0  0  0  0
  -18.1247   12.5650   -7.0723 C   0  0  2  0  0  0  0  0  0  0  0  0
  -18.8616   12.1858   -5.8721 C   0  0  0  0  0  0  0  0  0  0  0  0
  -20.1342   12.5003   -5.6657 C   0  0  0  0  0  0  0  0  0  0  0  0
  -20.9993   13.2547   -6.5668 C   0  0  0  0  0  0  0  0  0  0  0  0
  -20.7195   14.7321   -6.6710 C   0  0  0  0  0  0  0  0  0  0  0  0
  -18.6663   11.9461   -8.3699 C   0  0  0  0  0  0  0  0  0  0  0  0
  -21.5347   15.2942   -7.8066 C   0  0  0  0  0  0  0  0  0  0  0  0
  -21.0315   17.8377  -14.3881 C   0  0  1  0  0  0  0  0  0  0  0  0
  -21.6184   18.2010  -15.7639 C   0  0  0  0  0  0  0  0  0  0  0  0
  -22.3412   18.6225  -14.5551 C   0  0  0  0  0  0  0  0  0  0  0  0
  -19.8403   18.6439  -13.9928 C   0  0  2  0  0  0  0  0  0  0  0  0
  -18.7419   18.2049  -14.7004 F   0  0  0  0  0  0  0  0  0  0  0  0
  -19.6464   18.6899  -12.6366 F   0  0  0  0  0  0  0  0  0  0  0  0
  -20.0390   19.9720  -14.3867 F   0  0  0  0  0  0  0  0  0  0  0  0
  -16.5671   14.0453  -10.9546 N   0  0  0  0  0  0  0  0  0  0  0  0
  -16.1999   12.0421   -8.4942 N   0  0  0  0  0  0  0  0  0  0  0  0
  -19.5832   14.2347  -11.4435 N   0  0  0  0  0  0  0  0  0  0  0  0
  -13.2654   12.6652  -14.6100 N   0  0  0  0  0  0  0  0  0  0  0  0
  -13.4042   14.0792  -16.9443 N   0  0  0  0  0  0  0  0  0  0  0  0
  -16.6483    9.8649   -6.0566 N   0  0  0  0  0  0  0  0  0  0  0  0
  -14.8305   11.3610  -10.1871 O   0  0  0  0  0  0  0  0  0  0  0  0
  -16.8941   15.9077   -9.6947 O   0  0  0  0  0  0  0  0  0  0  0  0
  -20.5680   16.0499  -12.8037 O   0  0  0  0  0  0  0  0  0  0  0  0
  -20.6910   13.8958  -13.5044 O   0  0  0  0  0  0  0  0  0  0  0  0
  -15.3162   13.7277  -13.9299 O   0  0  0  0  0  0  0  0  0  0  0  0
   -9.1499   10.6144  -16.1084 O   0  0  0  0  0  0  0  0  0  0  0  0
  -17.7741    9.2591   -8.0262 O   0  0  0  0  0  0  0  0  0  0  0  0
  -14.6110    8.6993   -7.2458 O   0  0  0  0  0  0  0  0  0  0  0  0
  -14.9972    8.1551   -4.9153 O   0  0  0  0  0  0  0  0  0  0  0  0
  -15.0292    9.2802   -5.9157 S   0  0  1  0  0  0  0  0  0  0  0  0
  3  5  2  0
  7  8  1  6
  8  9  1  0
  9 10  1  0
  7 11  1  0
  1 13  1  0
 13 15  1  0
 15 16  1  0
  4 17  1  0
 17 18  1  0
  6 18  2  0
  6 19  1  0
  4 20  1  0
 19 20  2  0
  5 22  1  0
 12 23  1  1
 24 25  1  0
 24 26  1  0
 25 26  1  0
 24 27  1  6
 12 28  1  0
 28 29  1  0
 29 30  2  0
 30 31  1  0
 31 32  1  0
 28 33  1  6
 12 33  1  0
 32 34  1  0
 16 34  1  0
 35  2  1  6
 35 36  1  0
 36 37  1  0
 35 37  1  0
 35 38  1  0
 38 39  1  6
 38 40  1  0
 38 41  1  0
  1 42  1  0
  7 42  1  0
 10 42  1  0
 12 43  1  0
 11 43  1  0
 14 44  1  0
 13 44  1  1
  3 45  1  0
 17 45  2  0
  5 46  1  0
  4 46  2  0
 23 47  1  0
 11 48  2  0
  1 49  2  0
  2 50  1  0
 14 50  1  0
 14 51  2  0
  3 52  1  0
  9 52  1  6
  6 53  1  0
 21 53  1  0
 23 54  2  0
 55 57  2  0
 57 47  1  6
 56 57  2  0
 24 57  1  0
M  END
$$$$
