
     RDKit          3D

 35 39  0  0  0  0  0  0  0  0999 V2000
  -28.2801    4.2055   11.6731 N   0  0  0  0  0  0  0  0  0  0  0  0
  -31.7983    5.1079   11.6403 C   0  0  0  0  0  0  0  0  0  0  0  0
  -29.4576    4.6302   12.2447 C   0  0  0  0  0  0  0  0  0  0  0  0
  -20.7535    0.9833   10.6278 N   0  0  0  0  0  0  0  0  0  0  0  0
  -27.0431    3.9828   12.3165 C   0  0  0  0  0  0  0  0  0  0  0  0
  -26.7678    2.0509   10.9162 O   0  0  0  0  0  0  0  0  0  0  0  0
  -32.3065    7.6258   11.7226 C   0  0  0  0  0  0  0  0  0  0  0  0
  -32.7670    6.3628    9.6972 C   0  0  0  0  0  0  0  0  0  0  0  0
  -32.3009    6.3967   11.0265 C   0  0  0  0  0  0  0  0  0  0  0  0
  -21.1483    2.4890   14.4352 N   0  0  0  0  0  0  0  0  0  0  0  0
  -33.2465    7.5145    9.0730 C   0  0  0  0  0  0  0  0  0  0  0  0
  -33.2553    8.7181    9.7667 C   0  0  0  0  0  0  0  0  0  0  0  0
  -32.7790    8.7812   11.0733 C   0  0  0  0  0  0  0  0  0  0  0  0
  -21.5056    3.0207   15.6300 N   0  0  0  0  0  0  0  0  0  0  0  0
  -29.6677    4.7896   13.4405 O   0  0  0  0  0  0  0  0  0  0  0  0
  -30.4203    4.8492   11.2871 N   0  0  0  0  0  0  0  0  0  0  0  0
  -33.8561   10.1374    9.0050 Cl  0  0  0  0  0  0  0  0  0  0  0  0
  -31.7783    7.7675   13.1254 C   0  0  0  0  0  0  0  0  0  0  0  0
  -26.2962    2.8632   11.9230 C   0  0  0  0  0  0  0  0  0  0  0  0
  -25.1051    2.5348   12.5777 C   0  0  0  0  0  0  0  0  0  0  0  0
  -26.0041    2.2253    9.7029 C   0  0  0  0  0  0  0  0  0  0  0  0
  -25.4206    0.8778    9.2402 C   0  0  0  0  0  0  0  0  0  0  0  0
  -24.0524    0.9658    8.7982 O   0  0  0  0  0  0  0  0  0  0  0  0
  -23.1675    1.1174    9.9154 C   0  0  0  0  0  0  0  0  0  0  0  0
  -21.6910    1.1506    9.5105 C   0  0  0  0  0  0  0  0  0  0  0  0
  -20.8964    1.5254   11.8910 C   0  0  0  0  0  0  0  0  0  0  0  0
  -22.0383    2.0545   12.2462 N   0  0  0  0  0  0  0  0  0  0  0  0
  -22.1928    2.5320   13.5153 C   0  0  0  0  0  0  0  0  0  0  0  0
  -19.9194    1.9519   14.0722 C   0  0  0  0  0  0  0  0  0  0  0  0
  -19.7257    1.4661   12.8387 C   0  0  0  0  0  0  0  0  0  0  0  0
  -23.2702    3.1104   14.1633 C   0  0  0  0  0  0  0  0  0  0  0  0
  -22.7760    3.3939   15.4545 C   0  0  0  0  0  0  0  0  0  0  0  0
  -24.5656    3.3833   13.5544 C   0  0  0  0  0  0  0  0  0  0  0  0
  -25.2888    4.5266   13.9097 C   0  0  0  0  0  0  0  0  0  0  0  0
  -26.5215    4.8164   13.3069 C   0  0  0  0  0  0  0  0  0  0  0  0
  1  3  1  0
  1  5  1  0
  8  9  4  0
  2  9  1  0
  7  9  4  0
  8 11  4  0
 11 12  4  0
 12 13  4  0
  7 13  4  0
 10 14  4  0
  3 15  2  0
  2 16  1  0
  3 16  1  0
 12 17  1  0
  7 18  1  0
  6 19  1  0
  5 19  4  0
 19 20  4  0
  6 21  1  0
 21 22  1  0
 22 23  1  0
 23 24  1  0
 24 25  1  0
  4 25  1  0
  4 26  1  0
 26 27  4  0
 27 28  4  0
 10 28  4  0
 10 29  4  0
 26 30  4  0
 29 30  4  0
 28 31  4  0
 31 32  4  0
 14 32  4  0
 20 33  4  0
 31 33  1  0
 33 34  4  0
  5 35  4  0
 34 35  4  0
M  END
