
     RDKit          3D

 11 11  0  0  0  0  0  0  0  0999 V2000
   31.7736   57.2284   51.5276 N   0  0  0  0  0  0  0  0  0  0  0  0
   32.7192   57.2908   50.8540 C   0  0  0  0  0  0  0  0  0  0  0  0
   33.6541   58.0943   48.6807 C   0  0  0  0  0  0  0  0  0  0  0  0
   34.7131   58.4043   47.8121 C   0  0  0  0  0  0  0  0  0  0  0  0
   32.3431   58.4334   48.2967 C   0  0  0  0  0  0  0  0  0  0  0  0
   32.0985   59.0727   47.0791 C   0  0  0  0  0  0  0  0  0  0  0  0
   34.4661   59.0412   46.5945 C   0  0  0  0  0  0  0  0  0  0  0  0
   33.1644   59.3711   46.2383 C   0  0  0  0  0  0  0  0  0  0  0  0
   32.9734   59.9935   45.0411 O   0  0  0  0  0  0  0  0  0  0  0  0
   33.9225   57.3871   49.9975 C   0  0  2  0  0  0  0  0  0  0  0  0
   34.4726   56.0888   49.7322 O   0  0  0  0  0  0  0  0  0  0  0  0
  1  2  3  0
  3  4  4  0
  3  5  4  0
  5  6  4  0
  4  7  4  0
  6  8  4  0
  7  8  4  0
  8  9  1  0
  2 10  1  0
  3 10  1  0
 10 11  1  6
M  END
