7R3D_APR_AAA_401
     RDKit          3D

 59 62  0  0  0  0  0  0  0  0999 V2000
    1.0980    0.0646   -4.6031 N   0  0  0  0  0  0  0  0  0  0  0  0
    2.1540    0.5861   -3.8998 C   0  0  0  0  0  0  0  0  0  0  0  0
    2.0998    0.6822   -2.5366 N   0  0  0  0  0  0  0  0  0  0  0  0
    0.9784    0.2456   -1.9136 C   0  0  0  0  0  0  0  0  0  0  0  0
   -0.0759   -0.2714   -2.5834 C   0  0  0  0  0  0  0  0  0  0  0  0
   -0.0336   -0.3708   -3.9697 C   0  0  0  0  0  0  0  0  0  0  0  0
   -1.1197   -0.9154   -4.7191 N   0  0  0  0  0  0  0  0  0  0  0  0
   -1.0554   -0.6212   -1.7275 N   0  0  0  0  0  0  0  0  0  0  0  0
   -0.5298   -0.2850   -0.5163 C   0  0  0  0  0  0  0  0  0  0  0  0
    0.7197    0.2387   -0.5996 N   0  0  0  0  0  4  0  0  0  0  0  0
    1.5462    0.7723    0.4820 C   0  0  1  0  0  0  0  0  0  0  0  0
    2.6826    1.6475   -0.0762 C   0  0  2  0  0  0  0  0  0  0  0  0
    3.9467    1.0915    0.2070 O   0  0  0  0  0  0  0  0  0  0  0  0
    2.4676    2.9885    0.6083 C   0  0  2  0  0  0  0  0  0  0  0  0
    3.6628    3.5678    1.0649 O   0  0  0  0  0  0  0  0  0  0  0  0
    0.7477    1.5566    1.3421 O   0  0  0  0  0  0  0  0  0  0  0  0
    1.5623    2.6176    1.7730 C   0  0  2  0  0  0  0  0  0  0  0  0
    0.6976    3.7906    2.2391 C   0  0  0  0  0  0  0  0  0  0  0  0
   -0.3786    3.9427    1.3439 O   0  0  0  0  0  0  0  0  0  0  0  0
   -0.6587    2.4574    0.5491 P   0  0  2  0  0  5  0  0  0  0  0  0
   -1.5991    2.6362   -0.6265 O   0  0  0  0  0  0  0  0  0  0  0  0
   -1.3469    1.3654    1.6495 O   0  0  0  0  0  0  0  0  0  0  0  0
    0.8094    1.7924    0.0051 O   0  0  0  0  0  0  0  0  0  0  0  0
    1.3088    2.6861   -1.3573 P   0  0  1  0  0  5  0  0  0  0  0  0
    2.4474    3.5954   -0.9454 O   0  0  0  0  0  0  0  0  0  0  0  0
    1.8627    1.6570   -2.5837 O   0  0  0  0  0  0  0  0  0  0  0  0
    0.0268    3.6296   -1.9707 O   0  0  0  0  0  0  0  0  0  0  0  0
   -1.1876    2.9554   -1.7247 C   0  0  0  0  0  0  0  0  0  0  0  0
   -0.6722    2.2303   -3.9656 O   0  0  0  0  0  0  0  0  0  0  0  0
    1.4637    1.4079   -3.8614 O   0  0  0  0  0  0  0  0  0  0  0  0
    0.1537    1.1310   -4.2850 C   0  0  1  0  0  0  0  0  0  0  0  0
   -1.3380   -0.7480   -4.3699 O   0  0  0  0  0  0  0  0  0  0  0  0
   -0.3794   -0.1048   -3.5689 C   0  0  2  0  0  0  0  0  0  0  0  0
   -2.1356   -0.2559   -1.9268 O   0  0  0  0  0  0  0  0  0  0  0  0
   -1.0213    0.4901   -2.3439 C   0  0  2  0  0  0  0  0  0  0  0  0
   -1.4154    1.8959   -2.8097 C   0  0  1  0  0  0  0  0  0  0  0  0
    3.0361    0.9211   -4.4269 H   0  0  0  0  0  0  0  0  0  0  0  0
   -1.9777   -1.2694   -4.2412 H   0  0  0  0  0  0  0  0  0  0  0  0
   -1.0683   -0.9648   -5.7574 H   0  0  0  0  0  0  0  0  0  0  0  0
   -1.0613   -0.4169    0.4176 H   0  0  0  0  0  0  0  0  0  0  0  0
    1.9592   -0.0766    1.0750 H   0  0  0  0  0  0  0  0  0  0  0  0
    2.5958    1.7752   -1.1787 H   0  0  0  0  0  0  0  0  0  0  0  0
    4.0219    0.9838    1.1928 H   0  0  0  0  0  0  0  0  0  0  0  0
    1.9345    3.6825   -0.0868 H   0  0  0  0  0  0  0  0  0  0  0  0
    4.1414    3.8841    0.2573 H   0  0  0  0  0  0  0  0  0  0  0  0
    2.1769    2.2676    2.6370 H   0  0  0  0  0  0  0  0  0  0  0  0
    0.3416    3.5634    3.2686 H   0  0  0  0  0  0  0  0  0  0  0  0
    1.3151    4.7167    2.2490 H   0  0  0  0  0  0  0  0  0  0  0  0
   -2.3191    1.5578    1.6379 H   0  0  0  0  0  0  0  0  0  0  0  0
    2.3051    2.2547   -3.2358 H   0  0  0  0  0  0  0  0  0  0  0  0
   -1.1645    2.4496   -0.7326 H   0  0  0  0  0  0  0  0  0  0  0  0
   -2.0500    3.6602   -1.7529 H   0  0  0  0  0  0  0  0  0  0  0  0
    2.0626    0.7854   -4.3539 H   0  0  0  0  0  0  0  0  0  0  0  0
    0.1383    0.9837   -5.3897 H   0  0  0  0  0  0  0  0  0  0  0  0
   -0.8344   -1.3040   -5.0205 H   0  0  0  0  0  0  0  0  0  0  0  0
    0.4369   -0.8118   -3.2890 H   0  0  0  0  0  0  0  0  0  0  0  0
   -2.3784    0.0877   -1.0262 H   0  0  0  0  0  0  0  0  0  0  0  0
   -0.2620    0.5332   -1.5312 H   0  0  0  0  0  0  0  0  0  0  0  0
   -2.4957    1.9026   -3.0830 H   0  0  0  0  0  0  0  0  0  0  0  0
  1  2  4  0
  2  3  4  0
  3  4  4  0
  4  5  4  0
  1  6  4  0
  5  6  4  0
  6  7  1  0
  5  8  4  0
  8  9  4  0
  4 10  4  0
  9 10  4  0
 11 10  1  0
 11 12  1  0
 12 13  1  0
 12 14  1  0
 14 15  1  0
 11 16  1  0
 14 17  1  0
 16 17  1  0
 17 18  1  0
 18 19  1  0
 20 19  1  1
 20 21  2  0
 20 22  1  0
 20 23  1  0
 24 23  1  1
 24 25  2  0
 24 26  1  0
 24 27  1  0
 27 28  1  0
 29 31  1  0
 31 30  1  0
 31 33  1  0
 33 32  1  0
 33 35  1  0
 35 34  1  0
 36 28  1  0
 29 36  1  0
 35 36  1  0
  2 37  1  0
  7 38  1  0
  7 39  1  0
  9 40  1  0
 11 41  1  1
 12 42  1  6
 13 43  1  0
 14 44  1  6
 15 45  1  0
 17 46  1  1
 18 47  1  0
 18 48  1  0
 22 49  1  0
 26 50  1  0
 28 51  1  0
 28 52  1  0
 30 53  1  0
 31 54  1  6
 32 55  1  0
 33 56  1  1
 34 57  1  0
 35 58  1  1
 36 59  1  6
M  CHG  1  10   1
M  END
