1YVF_PH7_A_800
     RDKit          3D

 44 46  0  0  0  0  0  0  0  0999 V2000
  -10.0899   54.7673   47.7535 C   0  0  0  0  0  0  0  0  0  0  0  0
   -8.8918   54.5051   48.3114 C   0  0  0  0  0  0  0  0  0  0  0  0
   -8.6737   54.7221   49.7171 N   0  0  0  0  0  0  0  0  0  0  0  0
   -7.3606   54.7453   50.3008 C   0  0  0  0  0  0  0  0  0  0  0  0
   -6.4494   54.0215   49.8128 O   0  0  0  0  0  0  0  0  0  0  0  0
  -11.2125   55.4278   48.4570 C   0  0  0  0  0  0  0  0  0  0  0  0
  -11.0006   56.4992   49.3432 C   0  0  0  0  0  0  0  0  0  0  0  0
  -13.3928   56.7099   49.6987 C   0  0  0  0  0  0  0  0  0  0  0  0
  -12.5256   55.0204   48.1800 C   0  0  0  0  0  0  0  0  0  0  0  0
  -13.6079   55.6444   48.8070 C   0  0  0  0  0  0  0  0  0  0  0  0
  -15.8145   57.1631   50.0875 C   0  0  0  0  0  0  0  0  0  0  0  0
  -16.7642   57.5575   51.0439 C   0  0  0  0  0  0  0  0  0  0  0  0
  -18.1306   57.3970   50.7859 C   0  0  0  0  0  0  0  0  0  0  0  0
  -18.5570   56.8553   49.5707 C   0  0  0  0  0  0  0  0  0  0  0  0
  -17.6195   56.4788   48.6063 C   0  0  0  0  0  0  0  0  0  0  0  0
  -16.2537   56.6363   48.8582 C   0  0  0  0  0  0  0  0  0  0  0  0
   -7.8267   53.8737   47.4982 C   0  0  0  0  0  0  0  0  0  0  0  0
   -8.0915   53.4266   46.2057 O   0  0  0  0  0  0  0  0  0  0  0  0
   -6.6700   53.7280   47.9769 O   0  0  0  0  0  0  0  0  0  0  0  0
   -7.0483   55.6387   51.4424 C   0  0  0  0  0  0  0  0  0  0  0  0
   -6.8403   55.1197   52.7347 C   0  0  0  0  0  0  0  0  0  0  0  0
   -6.5425   55.9740   53.8010 C   0  0  0  0  0  0  0  0  0  0  0  0
   -6.4434   57.3509   53.5905 C   0  0  0  0  0  0  0  0  0  0  0  0
   -6.6369   57.8767   52.3115 C   0  0  0  0  0  0  0  0  0  0  0  0
   -6.9341   57.0274   51.2413 C   0  0  0  0  0  0  0  0  0  0  0  0
  -12.0839   57.1218   49.9696 C   0  0  0  0  0  0  0  0  0  0  0  0
  -14.4508   57.3490   50.3618 O   0  0  0  0  0  0  0  0  0  0  0  0
  -16.2095   58.3037   52.7163 Br  0  0  0  0  0  0  0  0  0  0  0  0
  -10.2785   54.4569   46.7324 H   0  0  0  0  0  0  0  0  0  0  0  0
   -9.4912   54.9914   50.3092 H   0  0  0  0  0  0  0  0  0  0  0  0
  -10.0014   56.8667   49.5386 H   0  0  0  0  0  0  0  0  0  0  0  0
  -12.7115   54.2050   47.4914 H   0  0  0  0  0  0  0  0  0  0  0  0
  -14.6088   55.2843   48.6090 H   0  0  0  0  0  0  0  0  0  0  0  0
  -18.8625   57.6933   51.5264 H   0  0  0  0  0  0  0  0  0  0  0  0
  -19.6144   56.7339   49.3737 H   0  0  0  0  0  0  0  0  0  0  0  0
  -17.9514   56.0714   47.6600 H   0  0  0  0  0  0  0  0  0  0  0  0
  -15.5427   56.3661   48.0885 H   0  0  0  0  0  0  0  0  0  0  0  0
   -7.3440   53.3118   45.5316 H   0  0  0  0  0  0  0  0  0  0  0  0
   -6.8847   54.0553   52.9229 H   0  0  0  0  0  0  0  0  0  0  0  0
   -6.3824   55.5668   54.7911 H   0  0  0  0  0  0  0  0  0  0  0  0
   -6.2121   58.0098   54.4175 H   0  0  0  0  0  0  0  0  0  0  0  0
   -6.5568   58.9438   52.1486 H   0  0  0  0  0  0  0  0  0  0  0  0
   -7.0848   57.4579   50.2590 H   0  0  0  0  0  0  0  0  0  0  0  0
  -11.9066   57.9396   50.6566 H   0  0  0  0  0  0  0  0  0  0  0  0
  1  2  2  0
  2  3  1  0
  3  4  1  0
  4  5  2  0
  1  6  1  0
  6  7  2  0
  6  9  1  0
  8 10  1  0
  9 10  2  0
 11 12  2  0
 12 13  1  0
 13 14  2  0
 14 15  1  0
 11 16  1  0
 15 16  2  0
  2 17  1  0
 17 18  1  0
 17 19  2  0
  4 20  1  0
 20 21  2  0
 21 22  1  0
 22 23  2  0
 23 24  1  0
 20 25  1  0
 24 25  2  0
  7 26  1  0
  8 26  2  0
  8 27  1  0
 11 27  1  0
 12 28  1  0
  1 29  1  0
  3 30  1  0
  7 31  1  0
  9 32  1  0
 10 33  1  0
 13 34  1  0
 14 35  1  0
 15 36  1  0
 16 37  1  0
 18 38  1  0
 21 39  1  0
 22 40  1  0
 23 41  1  0
 24 42  1  0
 25 43  1  0
 26 44  1  0
M  END
