7T0U_E3I_A_204
     RDKit          3D

 77 82  0  0  0  0  0  0  0  0999 V2000
   -0.5399   -3.5130    5.4815 C   0  0  0  0  0  0  0  0  0  0  0  0
    0.8726   -1.5837    4.8891 C   0  0  0  0  0  0  0  0  0  0  0  0
    1.1088   -0.4484    4.1177 C   0  0  0  0  0  0  0  0  0  0  0  0
    2.1478    0.4744    4.0568 C   0  0  0  0  0  0  0  0  0  0  0  0
    3.4411    0.4580    4.7697 C   0  0  0  0  0  0  0  0  0  0  0  0
    4.2098   -0.7108    4.8212 C   0  0  0  0  0  0  0  0  0  0  0  0
    5.4498   -0.7189    5.4650 C   0  0  0  0  0  0  0  0  0  0  0  0
    5.9439    0.4587    6.0614 C   0  0  0  0  0  0  0  0  0  0  0  0
    5.1840    1.6479    5.9981 C   0  0  0  0  0  0  0  0  0  0  0  0
    5.6879    2.9088    6.5963 C   0  0  0  0  0  0  0  0  0  0  0  0
    3.9405    1.6357    5.3420 C   0  0  0  0  0  0  0  0  0  0  0  0
    1.7532    1.4221    3.1126 C   0  0  0  0  0  0  0  0  0  0  0  0
   -0.1818    1.8097    1.5533 C   0  0  0  0  0  0  0  0  0  0  0  0
    0.1788    1.2494    0.2078 C   0  0  0  0  0  0  0  0  0  0  0  0
    0.4471    1.6963   -2.2756 C   0  0  0  0  0  0  0  0  0  0  0  0
   -0.4044    0.6766   -2.7357 C   0  0  0  0  0  0  0  0  0  0  0  0
   -0.3754    0.2835   -4.0896 C   0  0  0  0  0  0  0  0  0  0  0  0
   -0.9549   -1.3092   -5.9581 C   0  0  1  0  0  0  0  0  0  0  0  0
    0.3584   -2.1062   -5.9509 C   0  0  0  0  0  0  0  0  0  0  0  0
   -2.0906   -2.1842   -6.5462 C   0  0  0  0  0  0  0  0  0  0  0  0
   -3.8692   -0.4968   -6.3750 C   0  0  0  0  0  0  0  0  0  0  0  0
   -5.3481   -0.2663   -6.1372 C   0  0  0  0  0  0  0  0  0  0  0  0
   -4.2749   -0.3735   -7.8298 C   0  0  0  0  0  0  0  0  0  0  0  0
   -3.3989   -2.0858   -4.5534 C   0  0  0  0  0  0  0  0  0  0  0  0
   -2.4289   -1.1535   -3.8190 C   0  0  0  0  0  0  0  0  0  0  0  0
    1.3044    1.9232   -4.5244 C   0  0  0  0  0  0  0  0  0  0  0  0
    1.3039    2.3316   -3.1906 C   0  0  0  0  0  0  0  0  0  0  0  0
    0.1697   -0.0340    3.2289 C   0  0  0  0  0  0  0  0  0  0  0  0
   -1.2249   -1.8477    3.7558 C   0  0  0  0  0  0  0  0  0  0  0  0
   -2.5254   -2.5726    3.4948 C   0  0  0  0  0  0  0  0  0  0  0  0
   -2.2725   -3.7720    2.8556 F   0  0  0  0  0  0  0  0  0  0  0  0
   -3.1956   -2.8076    4.6813 F   0  0  0  0  0  0  0  0  0  0  0  0
   -3.3462   -1.8105    2.6811 F   0  0  0  0  0  0  0  0  0  0  0  0
   -0.2853   -2.3053    4.6742 N   0  0  0  0  0  0  0  0  0  0  0  0
    4.7895    3.8730    7.1497 N   0  0  0  0  0  0  0  0  0  0  0  0
    0.5364    1.1042    2.6134 N   0  0  0  0  0  0  0  0  0  0  0  0
    0.3993    2.1319   -0.9038 N   0  0  0  0  0  0  0  0  0  0  0  0
   -1.2358   -0.7721   -4.6028 N   0  0  0  0  0  0  0  0  0  0  0  0
   -3.4200   -1.8598   -6.0069 N   0  0  0  0  0  0  0  0  0  0  0  0
    0.4793    0.9268   -4.9345 N   0  0  0  0  0  0  0  0  0  0  0  0
   -0.9824   -0.7112    3.0360 N   0  0  0  0  0  0  0  0  0  0  0  0
    1.6967   -1.9248    5.7809 O   0  0  0  0  0  0  0  0  0  0  0  0
    7.1733    0.4617    6.7262 O   0  0  0  0  0  0  0  0  0  0  0  0
    6.9255    3.1427    6.6230 O   0  0  0  0  0  0  0  0  0  0  0  0
   -5.6244   -0.1402   -7.5104 O   0  0  0  0  0  0  0  0  0  0  0  0
    0.2651    0.0002    0.0581 O   0  0  0  0  0  0  0  0  0  0  0  0
    6.3608   -2.2239    5.4992 Cl  0  0  0  0  0  0  0  0  0  0  0  0
    2.4053    3.6097   -2.6927 Cl  0  0  0  0  0  0  0  0  0  0  0  0
   -1.2026   -3.2592    6.3353 H   0  0  0  0  0  0  0  0  0  0  0  0
    0.3995   -3.9491    5.8815 H   0  0  0  0  0  0  0  0  0  0  0  0
   -1.0042   -4.3141    4.8726 H   0  0  0  0  0  0  0  0  0  0  0  0
    3.8567   -1.6139    4.3386 H   0  0  0  0  0  0  0  0  0  0  0  0
    3.3597    2.5464    5.2620 H   0  0  0  0  0  0  0  0  0  0  0  0
    2.3380    2.2747    2.7906 H   0  0  0  0  0  0  0  0  0  0  0  0
    0.0626    2.8932    1.5994 H   0  0  0  0  0  0  0  0  0  0  0  0
   -1.2772    1.7080    1.7061 H   0  0  0  0  0  0  0  0  0  0  0  0
   -1.0942    0.2186   -2.0434 H   0  0  0  0  0  0  0  0  0  0  0  0
   -0.8315   -0.4513   -6.6564 H   0  0  0  0  0  0  0  0  0  0  0  0
    0.5640   -2.5149   -6.9641 H   0  0  0  0  0  0  0  0  0  0  0  0
    1.2152   -1.4618   -5.6671 H   0  0  0  0  0  0  0  0  0  0  0  0
    0.2930   -2.9473   -5.2275 H   0  0  0  0  0  0  0  0  0  0  0  0
   -2.0919   -2.0860   -7.6538 H   0  0  0  0  0  0  0  0  0  0  0  0
   -1.8896   -3.2640   -6.3564 H   0  0  0  0  0  0  0  0  0  0  0  0
   -3.2220    0.3367   -6.0228 H   0  0  0  0  0  0  0  0  0  0  0  0
   -5.5518    0.6851   -5.5985 H   0  0  0  0  0  0  0  0  0  0  0  0
   -5.8909   -1.1389   -5.7130 H   0  0  0  0  0  0  0  0  0  0  0  0
   -4.1716   -1.3116   -8.4187 H   0  0  0  0  0  0  0  0  0  0  0  0
   -3.8223    0.5128   -8.3263 H   0  0  0  0  0  0  0  0  0  0  0  0
   -4.4176   -1.9681   -4.1274 H   0  0  0  0  0  0  0  0  0  0  0  0
   -3.1131   -3.1420   -4.3467 H   0  0  0  0  0  0  0  0  0  0  0  0
   -2.1095   -1.6575   -2.8812 H   0  0  0  0  0  0  0  0  0  0  0  0
   -2.9881   -0.2318   -3.5433 H   0  0  0  0  0  0  0  0  0  0  0  0
    1.9640    2.3965   -5.2401 H   0  0  0  0  0  0  0  0  0  0  0  0
    3.7729    3.6669    7.2639 H   0  0  0  0  0  0  0  0  0  0  0  0
    5.1565    4.7806    7.5135 H   0  0  0  0  0  0  0  0  0  0  0  0
    0.5654    3.1418   -0.6975 H   0  0  0  0  0  0  0  0  0  0  0  0
    7.7589   -0.3595    6.8074 H   0  0  0  0  0  0  0  0  0  0  0  0
  2  3  1  0
  3  4  1  0
  4  5  1  0
  5  6  2  0
  6  7  1  0
  7  8  2  0
  8  9  1  0
  9 10  1  0
  9 11  2  0
  5 11  1  0
  4 12  2  0
 13 14  1  0
 15 16  2  0
 16 17  1  0
 18 19  1  0
 18 20  1  0
 21 22  1  0
 21 23  1  0
 24 25  1  0
 15 27  1  0
 26 27  2  0
  3 28  2  0
 29 30  1  0
 30 31  1  0
 30 32  1  0
 30 33  1  0
  2 34  1  0
  1 34  1  0
 29 34  1  0
 10 35  1  0
 12 36  1  0
 13 36  1  0
 28 36  1  0
 14 37  1  0
 15 37  1  0
 17 38  1  0
 18 38  1  0
 25 38  1  0
 20 39  1  0
 24 39  1  0
 21 39  1  0
 26 40  1  0
 17 40  2  0
 28 41  1  0
 29 41  2  0
  2 42  2  0
  8 43  1  0
 10 44  2  0
 22 45  1  0
 23 45  1  0
 14 46  2  0
  7 47  1  0
 27 48  1  0
  1 49  1  0
  1 50  1  0
  1 51  1  0
  6 52  1  0
 11 53  1  0
 12 54  1  0
 13 55  1  0
 13 56  1  0
 16 57  1  0
 18 58  1  6
 19 59  1  0
 19 60  1  0
 19 61  1  0
 20 62  1  0
 20 63  1  0
 21 64  1  0
 22 65  1  0
 22 66  1  0
 23 67  1  0
 23 68  1  0
 24 69  1  0
 24 70  1  0
 25 71  1  0
 25 72  1  0
 26 73  1  0
 35 74  1  0
 35 75  1  0
 37 76  1  0
 43 77  1  0
M  END
