
     RDKit          3D

 35 39  0  0  0  0  0  0  0  0999 V2000
   31.5798   54.2054   89.4422 O   0  0  0  0  0  0  0  0  0  0  0  0
   16.2845   54.2656   86.7663 C   0  0  0  0  0  0  0  0  0  0  0  0
   17.8471   55.8247   87.4421 C   0  0  0  0  0  0  0  0  0  0  0  0
   22.0232   55.6496   89.7902 C   0  0  0  0  0  0  0  0  0  0  0  0
   19.0863   56.3910   87.3074 N   0  0  0  0  0  0  0  0  0  0  0  0
   20.1945   55.6057   86.7551 C   0  0  0  0  0  0  0  0  0  0  0  0
   19.5472   57.3566   88.2873 C   0  0  0  0  0  0  0  0  0  0  0  0
   21.0099   57.5777   87.8824 C   0  0  2  0  0  0  0  0  0  0  0  0
   21.4877   56.1781   87.4499 C   0  0  2  0  0  0  0  0  0  0  0  0
   27.6241   55.1865   84.7108 O   0  0  0  0  0  0  0  0  0  0  0  0
   27.5080   55.4812   85.8921 C   0  0  0  0  0  0  0  0  0  0  0  0
   28.5987   55.1297   86.8471 C   0  0  0  0  0  0  0  0  0  0  0  0
   29.6571   55.9906   86.9236 N   0  0  0  0  0  0  0  0  0  0  0  0
   30.6178   55.6213   87.8097 C   0  0  0  0  0  0  0  0  0  0  0  0
   30.5372   54.4648   88.5789 C   0  0  0  0  0  0  0  0  0  0  0  0
   32.0501   52.8631   89.3611 C   0  0  0  0  0  0  0  0  0  0  0  0
   29.4864   53.6166   88.4970 N   0  0  0  0  0  0  0  0  0  0  0  0
   28.5173   53.9747   87.6131 C   0  0  0  0  0  0  0  0  0  0  0  0
   26.4502   56.1292   86.5009 N   0  0  0  0  0  0  0  0  0  0  0  0
   25.1090   56.2015   86.0862 C   0  0  0  0  0  0  0  0  0  0  0  0
   24.8804   56.3398   84.7143 C   0  0  0  0  0  0  0  0  0  0  0  0
   23.5800   56.4189   84.2242 C   0  0  0  0  0  0  0  0  0  0  0  0
   22.5041   56.3621   85.1044 C   0  0  0  0  0  0  0  0  0  0  0  0
   21.2726   56.4481   84.5828 F   0  0  0  0  0  0  0  0  0  0  0  0
   24.0137   56.1442   86.9581 C   0  0  0  0  0  0  0  0  0  0  0  0
   22.6832   56.2242   86.4881 C   0  0  0  0  0  0  0  0  0  0  0  0
   21.7511   55.2910   88.5970 N   0  0  0  0  0  0  0  0  0  0  0  0
   22.2593   54.7093   90.7357 N   0  0  0  0  0  0  0  0  0  0  0  0
   22.0916   57.2604   90.4203 S   0  0  0  0  0  0  0  0  0  0  0  0
   21.8971   58.2259   88.9211 C   0  0  0  0  0  0  0  0  0  0  0  0
   17.0410   56.2522   88.4333 N   0  0  0  0  0  0  0  0  0  0  0  0
   15.8369   55.6544   88.5638 C   0  0  0  0  0  0  0  0  0  0  0  0
   15.4083   54.6450   87.7463 C   0  0  0  0  0  0  0  0  0  0  0  0
   14.2116   54.0679   87.8935 F   0  0  0  0  0  0  0  0  0  0  0  0
   17.4977   54.8346   86.5961 N   0  0  0  0  0  0  0  0  0  0  0  0
  3  5  1  0
  5  6  1  0
  5  7  1  0
  8  7  1  1
  6  9  1  0
  8  9  1  0
 10 11  2  0
 11 12  1  0
 12 13  4  0
 13 14  4  0
 14 15  4  0
  1 15  1  0
  1 16  1  0
 15 17  4  0
 12 18  4  0
 17 18  4  0
 11 19  1  0
 19 20  1  0
 20 21  4  0
 21 22  4  0
 22 23  4  0
 23 24  1  0
 20 25  4  0
 23 26  4  0
 25 26  4  0
  9 26  1  6
  9 27  1  0
  4 27  2  0
  4 28  1  0
  4 29  1  0
  8 30  1  0
 29 30  1  0
  3 31  4  0
 31 32  4  0
 32 33  4  0
  2 33  4  0
 33 34  1  0
  3 35  4  0
  2 35  4  0
M  END
