7KM8_WPD_A_202
     RDKit          3D

 29 30  0  0  0  0  0  0  0  0999 V2000
   -8.1779   -0.5087   -9.0711 C   0  0  0  0  0  0  0  0  0  0  0  0
   -6.9481   -0.9489   -8.7289 O   0  0  0  0  0  0  0  0  0  0  0  0
   -7.9579    1.6171  -12.1631 C   0  0  0  0  0  0  0  0  0  0  0  0
   -7.3450    0.7354  -11.1055 C   0  0  0  0  0  0  0  0  0  0  0  0
   -8.4225    0.2848  -10.1784 C   0  0  0  0  0  0  0  0  0  0  0  0
  -10.7161    0.3768   -9.7493 C   0  0  0  0  0  0  0  0  0  0  0  0
   -9.3072   -0.8333   -8.3169 C   0  0  0  0  0  0  0  0  0  0  0  0
   -5.7592   -0.2726   -8.8500 C   0  0  0  0  0  0  0  0  0  0  0  0
   -4.5682   -1.2029   -8.6453 C   0  0  0  0  0  0  0  0  0  0  0  0
   -4.9301   -2.1528   -7.5262 C   0  0  0  0  0  0  0  0  0  0  0  0
   -4.6546   -4.6129   -7.1356 C   0  0  0  0  0  0  0  0  0  0  0  0
   -5.7216   -5.0619   -6.4089 C   0  0  0  0  0  0  0  0  0  0  0  0
   -5.7455   -6.2927   -5.7557 C   0  0  0  0  0  0  0  0  0  0  0  0
   -4.6340   -7.0962   -5.8506 C   0  0  0  0  0  0  0  0  0  0  0  0
   -3.5300   -6.6983   -6.5688 C   0  0  0  0  0  0  0  0  0  0  0  0
   -2.3369   -7.5507   -6.6777 C   0  0  0  0  0  0  0  0  0  0  0  0
   -1.5529   -7.4666   -5.3948 C   0  0  2  0  0  0  0  0  0  0  0  0
   -0.6607   -6.2704   -5.3795 C   0  0  2  0  0  0  0  0  0  0  0  0
   -0.7975   -8.7407   -5.2613 C   0  0  0  0  0  0  0  0  0  0  0  0
   -3.5483   -5.4787   -7.1960 C   0  0  0  0  0  0  0  0  0  0  0  0
    0.2984   -6.4273   -4.3878 F   0  0  0  0  0  0  0  0  0  0  0  0
   -1.4006   -5.1191   -5.1501 F   0  0  0  0  0  0  0  0  0  0  0  0
   -9.6716    0.7147  -10.5033 N   0  0  0  0  0  0  0  0  0  0  0  0
  -12.0113    0.8396  -10.1101 N   0  0  0  0  0  0  0  0  0  0  0  0
  -10.5438   -0.3832   -8.6742 N   0  0  0  0  0  0  0  0  0  0  0  0
   -9.2601   -1.6478   -7.1645 N   0  0  0  0  0  0  0  0  0  0  0  0
   -4.5334   -3.4397   -7.7993 O   0  0  0  0  0  0  0  0  0  0  0  0
   -1.1185   -9.6317   -4.4345 O   0  0  0  0  0  0  0  0  0  0  0  0
    0.3014   -8.9477   -6.0825 O   0  0  0  0  0  0  0  0  0  0  0  0
  1  2  1  0
  3  4  1  0
  1  5  2  0
  4  5  1  0
  1  7  1  0
  2  8  1  0
  8  9  1  0
  9 10  1  0
 11 12  2  0
 12 13  1  0
 13 14  2  0
 14 15  1  0
 15 16  1  0
 17 16  1  6
 17 18  1  0
 17 19  1  0
 15 20  2  0
 11 20  1  0
 18 21  1  1
 18 22  1  0
  6 23  2  0
  5 23  1  0
  6 24  1  0
  7 25  2  0
  6 25  1  0
  7 26  1  0
 11 27  1  0
 10 27  1  0
 19 28  2  0
 19 29  1  0
M  END
$$$$
