1JLA_TNK_A_999
     RDKit          3D

 27 29  0  0  0  0  0  0  0  0999 V2000
   17.1660  -23.2305   23.0906 C   0  0  0  0  0  0  0  0  0  0  0  0
   17.7977  -23.1122   21.8380 C   0  0  0  0  0  0  0  0  0  0  0  0
   17.1834  -23.4696   20.6651 C   0  0  0  0  0  0  0  0  0  0  0  0
   15.9047  -23.9677   20.6504 C   0  0  0  0  0  0  0  0  0  0  0  0
   15.2616  -24.0955   21.8534 C   0  0  0  0  0  0  0  0  0  0  0  0
   15.8945  -23.7285   23.0516 C   0  0  0  0  0  0  0  0  0  0  0  0
   19.3397  -23.2040   24.3235 C   0  0  0  0  0  0  0  0  0  0  0  0
   19.8149  -24.3100   23.7241 N   0  0  0  0  0  0  0  0  0  0  0  0
   21.1281  -24.6863   23.8269 C   0  0  0  0  0  0  0  0  0  0  0  0
   21.5545  -25.7265   23.2585 O   0  0  0  0  0  0  0  0  0  0  0  0
   22.0213  -23.9751   24.5297 N   0  0  0  0  0  0  0  0  0  0  0  0
   21.6010  -22.8641   25.1439 C   0  0  0  0  0  0  0  0  0  0  0  0
   22.4507  -22.2103   25.7959 O   0  0  0  0  0  0  0  0  0  0  0  0
   20.2604  -22.4619   25.0496 C   0  0  0  0  0  0  0  0  0  0  0  0
   17.9219  -22.8365   24.2925 C   0  0  0  0  0  0  0  0  0  0  0  0
   19.9449  -21.1575   25.6723 C   0  0  2  0  0  0  0  0  0  0  0  0
   20.6775  -20.0897   24.8447 C   0  0  0  0  0  0  0  0  0  0  0  0
   20.5237  -21.1209   27.0564 C   0  0  0  0  0  0  0  0  0  0  0  0
   19.0008  -25.1831   22.8937 C   0  0  0  0  0  0  0  0  0  0  0  0
   19.2107  -26.5017   23.3391 O   0  0  0  0  0  0  0  0  0  0  0  0
   18.0265  -27.2092   23.5160 C   0  0  0  0  0  0  0  0  0  0  0  0
   18.2958  -28.4048   24.3906 C   0  0  0  0  0  0  0  0  0  0  0  0
   18.2108  -29.6928   23.9168 C   0  0  0  0  0  0  0  0  0  0  0  0
   18.4779  -30.7496   24.7627 C   0  0  0  0  0  0  0  0  0  0  0  0
   18.8302  -30.4943   26.0870 C   0  0  0  0  0  0  0  0  0  0  0  0
   18.9198  -29.1987   26.5799 C   0  0  0  0  0  0  0  0  0  0  0  0
   18.6485  -28.1733   25.7143 C   0  0  0  0  0  0  0  0  0  0  0  0
  1  2  2  0
  2  3  1  0
  3  4  2  0
  4  5  1  0
  1  6  1  0
  5  6  2  0
  7  8  1  0
  8  9  1  0
  9 10  2  0
  9 11  1  0
 11 12  1  0
 12 13  2  0
  7 14  2  0
 12 14  1  0
  1 15  1  0
  7 15  1  0
 14 16  1  0
 16 17  1  6
 16 18  1  0
  8 19  1  0
 19 20  1  0
 20 21  1  0
 21 22  1  0
 22 23  2  0
 23 24  1  0
 24 25  2  0
 25 26  1  0
 22 27  1  0
 26 27  2  0
M  END
$$$$
