1JLA_TNK_A_999
     RDKit          3D

 27 29  0  0  0  0  0  0  0  0999 V2000
   13.7049  -29.1311   41.0106 C   0  0  0  0  0  0  0  0  0  0  0  0
   12.5968  -28.2628   41.0224 C   0  0  0  0  0  0  0  0  0  0  0  0
   12.3165  -27.4101   39.9854 C   0  0  0  0  0  0  0  0  0  0  0  0
   13.1112  -27.3577   38.8678 C   0  0  0  0  0  0  0  0  0  0  0  0
   14.1983  -28.1905   38.8249 C   0  0  0  0  0  0  0  0  0  0  0  0
   14.4815  -29.0616   39.8889 C   0  0  0  0  0  0  0  0  0  0  0  0
   12.9677  -29.8625   43.2837 C   0  0  0  0  0  0  0  0  0  0  0  0
   13.0997  -28.9421   44.2553 N   0  0  0  0  0  0  0  0  0  0  0  0
   12.2412  -28.8807   45.3210 C   0  0  0  0  0  0  0  0  0  0  0  0
   12.3816  -28.0113   46.2219 O   0  0  0  0  0  0  0  0  0  0  0  0
   11.2154  -29.7326   45.4612 N   0  0  0  0  0  0  0  0  0  0  0  0
   11.0376  -30.6666   44.5209 C   0  0  0  0  0  0  0  0  0  0  0  0
   10.0720  -31.4545   44.6675 O   0  0  0  0  0  0  0  0  0  0  0  0
   11.9056  -30.7449   43.4216 C   0  0  0  0  0  0  0  0  0  0  0  0
   13.9272  -29.9935   42.1846 C   0  0  0  0  0  0  0  0  0  0  0  0
   11.5364  -31.7414   42.3924 C   0  0  2  0  0  0  0  0  0  0  0  0
   10.1555  -31.3278   41.8594 C   0  0  0  0  0  0  0  0  0  0  0  0
   11.3770  -33.0843   43.0433 C   0  0  0  0  0  0  0  0  0  0  0  0
   14.1312  -27.9172   44.2522 C   0  0  0  0  0  0  0  0  0  0  0  0
   15.0493  -28.2424   45.2682 O   0  0  0  0  0  0  0  0  0  0  0  0
   14.9197  -27.4365   46.3942 C   0  0  0  0  0  0  0  0  0  0  0  0
   14.4703  -28.2842   47.5546 C   0  0  0  0  0  0  0  0  0  0  0  0
   13.3201  -28.0130   48.2576 C   0  0  0  0  0  0  0  0  0  0  0  0
   12.9531  -28.8309   49.3065 C   0  0  0  0  0  0  0  0  0  0  0  0
   13.7559  -29.9210   49.6379 C   0  0  0  0  0  0  0  0  0  0  0  0
   14.9207  -30.2073   48.9371 C   0  0  0  0  0  0  0  0  0  0  0  0
   15.2558  -29.3762   47.9022 C   0  0  0  0  0  0  0  0  0  0  0  0
  1  2  2  0
  2  3  1  0
  3  4  2  0
  4  5  1  0
  1  6  1  0
  5  6  2  0
  7  8  1  0
  8  9  1  0
  9 10  2  0
  9 11  1  0
 11 12  1  0
 12 13  2  0
  7 14  2  0
 12 14  1  0
  1 15  1  0
  7 15  1  0
 14 16  1  0
 16 17  1  1
 16 18  1  0
  8 19  1  0
 19 20  1  0
 20 21  1  0
 21 22  1  0
 22 23  2  0
 23 24  1  0
 24 25  2  0
 25 26  1  0
 22 27  1  0
 26 27  2  0
M  END
$$$$
