1JLA_TNK_A_999
     RDKit          3D

 27 29  0  0  0  0  0  0  0  0999 V2000
   12.4613  -31.2401   42.4619 C   0  0  0  0  0  0  0  0  0  0  0  0
   13.3745  -32.1490   41.8942 C   0  0  0  0  0  0  0  0  0  0  0  0
   13.7971  -33.2770   42.5500 C   0  0  0  0  0  0  0  0  0  0  0  0
   13.3464  -33.5831   43.8096 C   0  0  0  0  0  0  0  0  0  0  0  0
   12.4563  -32.7186   44.3906 C   0  0  0  0  0  0  0  0  0  0  0  0
   12.0268  -31.5649   43.7156 C   0  0  0  0  0  0  0  0  0  0  0  0
   11.0800  -29.1659   42.2747 C   0  0  0  0  0  0  0  0  0  0  0  0
    9.8206  -29.5672   42.5224 N   0  0  0  0  0  0  0  0  0  0  0  0
    8.8655  -28.7111   43.0037 C   0  0  0  0  0  0  0  0  0  0  0  0
    7.6905  -29.1057   43.2290 O   0  0  0  0  0  0  0  0  0  0  0  0
    9.1268  -27.4211   43.2592 N   0  0  0  0  0  0  0  0  0  0  0  0
   10.3653  -26.9710   43.0323 C   0  0  0  0  0  0  0  0  0  0  0  0
   10.5924  -25.7616   43.2782 O   0  0  0  0  0  0  0  0  0  0  0  0
   11.3573  -27.8324   42.5405 C   0  0  0  0  0  0  0  0  0  0  0  0
   12.0872  -30.0482   41.6805 C   0  0  0  0  0  0  0  0  0  0  0  0
   12.7128  -27.2478   42.4428 C   0  0  2  0  0  0  0  0  0  0  0  0
   13.0436  -26.6774   43.8310 C   0  0  0  0  0  0  0  0  0  0  0  0
   12.6821  -26.0934   41.4843 C   0  0  0  0  0  0  0  0  0  0  0  0
    9.3655  -30.9359   42.3377 C   0  0  0  0  0  0  0  0  0  0  0  0
    8.5714  -30.9611   41.1759 O   0  0  0  0  0  0  0  0  0  0  0  0
    7.9024  -32.1679   41.0026 C   0  0  0  0  0  0  0  0  0  0  0  0
    6.5494  -31.8963   40.4004 C   0  0  0  0  0  0  0  0  0  0  0  0
    5.4384  -32.6357   40.7316 C   0  0  0  0  0  0  0  0  0  0  0  0
    4.2219  -32.3347   40.1543 C   0  0  0  0  0  0  0  0  0  0  0  0
    4.1383  -31.2839   39.2424 C   0  0  0  0  0  0  0  0  0  0  0  0
    5.2519  -30.5284   38.8978 C   0  0  0  0  0  0  0  0  0  0  0  0
    6.4432  -30.8532   39.4888 C   0  0  0  0  0  0  0  0  0  0  0  0
  1  2  2  0
  2  3  1  0
  3  4  2  0
  4  5  1  0
  1  6  1  0
  5  6  2  0
  7  8  1  0
  8  9  1  0
  9 10  2  0
  9 11  1  0
 11 12  1  0
 12 13  2  0
  7 14  2  0
 12 14  1  0
  1 15  1  0
  7 15  1  0
 14 16  1  0
 16 17  1  1
 16 18  1  0
  8 19  1  0
 19 20  1  0
 20 21  1  0
 21 22  1  0
 22 23  2  0
 23 24  1  0
 24 25  2  0
 25 26  1  0
 22 27  1  0
 26 27  2  0
M  END
$$$$
