1JLA_TNK_A_999
     RDKit          3D

 27 29  0  0  0  0  0  0  0  0999 V2000
   26.9049   -3.9417   12.4672 C   0  0  0  0  0  0  0  0  0  0  0  0
   26.0779   -2.8170   12.6492 C   0  0  0  0  0  0  0  0  0  0  0  0
   25.3613   -2.2544   11.6241 C   0  0  0  0  0  0  0  0  0  0  0  0
   25.4133   -2.7644   10.3511 C   0  0  0  0  0  0  0  0  0  0  0  0
   26.2093   -3.8595   10.1402 C   0  0  0  0  0  0  0  0  0  0  0  0
   26.9412   -4.4319   11.1927 C   0  0  0  0  0  0  0  0  0  0  0  0
   27.6363   -3.6224   14.8355 C   0  0  0  0  0  0  0  0  0  0  0  0
   28.2871   -2.4480   14.9098 N   0  0  0  0  0  0  0  0  0  0  0  0
   28.3362   -1.7151   16.0662 C   0  0  0  0  0  0  0  0  0  0  0  0
   28.9517   -0.6171   16.1164 O   0  0  0  0  0  0  0  0  0  0  0  0
   27.7376   -2.1218   17.1948 N   0  0  0  0  0  0  0  0  0  0  0  0
   27.0741   -3.2827   17.1745 C   0  0  0  0  0  0  0  0  0  0  0  0
   26.5189   -3.6471   18.2391 O   0  0  0  0  0  0  0  0  0  0  0  0
   27.0117   -4.0469   15.9998 C   0  0  0  0  0  0  0  0  0  0  0  0
   27.6476   -4.4564   13.6312 C   0  0  0  0  0  0  0  0  0  0  0  0
   26.1524   -5.2490   16.0707 C   0  0  2  0  0  0  0  0  0  0  0  0
   24.7421   -4.7570   16.4326 C   0  0  0  0  0  0  0  0  0  0  0  0
   26.6208   -6.1222   17.1977 C   0  0  0  0  0  0  0  0  0  0  0  0
   28.9640   -1.8348   13.7782 C   0  0  0  0  0  0  0  0  0  0  0  0
   30.3292   -1.7394   14.1070 O   0  0  0  0  0  0  0  0  0  0  0  0
   31.1041   -1.2408   13.0654 C   0  0  0  0  0  0  0  0  0  0  0  0
   32.4184   -0.7585   13.6195 C   0  0  0  0  0  0  0  0  0  0  0  0
   32.9334   -1.2345   14.8023 C   0  0  0  0  0  0  0  0  0  0  0  0
   34.1477   -0.7622   15.2564 C   0  0  0  0  0  0  0  0  0  0  0  0
   34.8344    0.1920   14.5076 C   0  0  0  0  0  0  0  0  0  0  0  0
   34.3266    0.6824   13.3112 C   0  0  0  0  0  0  0  0  0  0  0  0
   33.1199    0.1928   12.8893 C   0  0  0  0  0  0  0  0  0  0  0  0
  1  2  2  0
  2  3  1  0
  3  4  2  0
  4  5  1  0
  1  6  1  0
  5  6  2  0
  7  8  1  0
  8  9  1  0
  9 10  2  0
  9 11  1  0
 11 12  1  0
 12 13  2  0
  7 14  2  0
 12 14  1  0
  1 15  1  0
  7 15  1  0
 14 16  1  0
 16 17  1  1
 16 18  1  0
  8 19  1  0
 19 20  1  0
 20 21  1  0
 21 22  1  0
 22 23  2  0
 23 24  1  0
 24 25  2  0
 25 26  1  0
 22 27  1  0
 26 27  2  0
M  END
$$$$
