
     RDKit          3D

 35 39  0  0  0  0  0  0  0  0999 V2000
  -16.5140   27.6998  -20.2287 N   0  0  0  0  0  0  0  0  0  0  0  0
  -16.9402   28.5860  -19.3023 C   0  0  0  0  0  0  0  0  0  0  0  0
  -15.2775   30.4382  -16.2646 O   0  0  0  0  0  0  0  0  0  0  0  0
  -15.3240   27.0900  -20.0299 C   0  0  0  0  0  0  0  0  0  0  0  0
  -14.5998   27.3907  -18.8628 C   0  0  0  0  0  0  0  0  0  0  0  0
  -15.1635   28.3174  -18.0020 C   0  0  0  0  0  0  0  0  0  0  0  0
  -11.7589   34.8917  -11.7486 C   0  0  0  0  0  0  0  0  0  0  0  0
  -10.8264   33.7210  -12.1081 C   0  0  1  0  0  0  0  0  0  0  0  0
  -11.0828   32.4362  -11.3199 C   0  0  1  0  0  0  0  0  0  0  0  0
  -12.1248   31.7253  -12.1673 C   0  0  1  0  0  0  0  0  0  0  0  0
  -11.7228   32.1301  -13.5928 C   0  0  2  0  0  0  0  0  0  0  0  0
  -13.2359   27.5673  -17.2231 C   0  0  0  0  0  0  0  0  0  0  0  0
  -14.4204   29.3471  -15.8541 C   0  0  2  0  0  0  0  0  0  0  0  0
  -13.1487   29.9831  -15.2624 C   0  0  1  0  0  0  0  0  0  0  0  0
  -13.7263   31.2721  -14.6793 C   0  0  2  0  0  0  0  0  0  0  0  0
  -14.6680   31.6623  -15.8242 C   0  0  2  0  0  0  0  0  0  0  0  0
  -15.7178   32.7192  -15.4834 C   0  0  0  0  0  0  0  0  0  0  0  0
  -16.3400   28.9519  -18.1520 N   0  0  0  0  0  0  0  0  0  0  0  0
  -14.2586   28.4446  -16.9742 N   0  0  0  0  0  0  0  0  0  0  0  0
  -13.4018   26.9212  -18.3613 N   0  0  0  0  0  0  0  0  0  0  0  0
  -14.8859   26.1766  -20.9834 N   0  0  0  0  0  0  0  0  0  0  0  0
  -16.4056   32.3908  -14.2846 O   0  0  0  0  0  0  0  0  0  0  0  0
  -12.0981   30.3042  -11.9795 O   0  0  0  0  0  0  0  0  0  0  0  0
   -9.9167   31.5895  -11.2902 O   0  0  0  0  0  0  0  0  0  0  0  0
  -12.5177   29.1124  -14.3301 O   0  0  0  0  0  0  0  0  0  0  0  0
  -17.1291   34.8642  -13.6788 O   0  0  0  0  0  0  0  0  0  0  0  0
  -17.5830   32.8056  -12.1593 O   0  0  0  0  0  0  0  0  0  0  0  0
  -15.2493   33.6111  -12.3903 O   0  0  0  0  0  0  0  0  0  0  0  0
  -13.8505   35.2248  -13.9106 O   0  0  0  0  0  0  0  0  0  0  0  0
  -15.0090   36.0219  -11.7395 O   0  0  0  0  0  0  0  0  0  0  0  0
  -13.0795   34.4387  -11.5174 O   0  0  0  0  0  0  0  0  0  0  0  0
  -11.0062   33.3725  -13.4942 O   0  0  0  0  0  0  0  0  0  0  0  0
  -12.8275   32.3466  -14.4600 O   0  0  0  0  0  0  0  0  0  0  0  0
  -16.6135   33.5492  -13.1949 P   0  0  1  0  0  5  0  0  0  0  0  0
  -14.2585   34.8491  -12.5303 P   0  0  1  0  0  5  0  0  0  0  0  0
  1  2  4  0
  1  4  4  0
  4  5  4  0
  5  6  4  0
  8  7  1  1
  8  9  1  0
  9 10  1  0
 10 11  1  0
  3 13  1  0
 13 14  1  0
 14 15  1  0
  3 16  1  0
 15 16  1  0
 16 17  1  1
  2 18  4  0
  6 18  4  0
  6 19  4  0
 12 19  4  0
 13 19  1  6
  5 20  4  0
 12 20  4  0
  4 21  1  0
 17 22  1  0
 10 23  1  6
  9 24  1  6
 14 25  1  1
  7 31  1  0
 11 32  1  0
  8 32  1  0
 15 33  1  6
 11 33  1  6
 28 34  1  0
 22 34  1  0
 34 27  1  1
 26 34  2  0
 35 30  1  1
 28 35  1  0
 31 35  1  0
 29 35  2  0
M  END
