7SFO_98L_A_601
     RDKit          3D

 39 42  0  0  0  0  0  0  0  0999 V2000
   -6.4266    0.0328    5.0499 N   0  0  0  0  0  0  0  0  0  0  0  0
   -3.3706   -2.3781    6.6418 N   0  0  0  0  0  0  0  0  0  0  0  0
   -2.3241   -3.9452    3.1894 C   0  0  0  0  0  0  0  0  0  0  0  0
   -2.4951   -2.6519    3.7118 C   0  0  0  0  0  0  0  0  0  0  0  0
   -1.4308   -2.0365    4.3903 C   0  0  0  0  0  0  0  0  0  0  0  0
   -3.7979   -1.9677    3.6008 C   0  0  0  0  0  0  0  0  0  0  0  0
   -5.6125   -0.6546    4.2166 C   0  0  0  0  0  0  0  0  0  0  0  0
   -6.1898   -0.0183    6.3880 C   0  0  0  0  0  0  0  0  0  0  0  0
   -1.9381   -2.0971    6.6054 C   0  0  0  0  0  0  0  0  0  0  0  0
   -2.0334   -3.2119    4.3480 C   0  0  0  0  0  0  0  0  0  0  0  0
   -0.1033   -4.3427    3.4159 C   0  0  0  0  0  0  0  0  0  0  0  0
   -0.2020   -2.6924    4.5134 C   0  0  0  0  0  0  0  0  0  0  0  0
   -4.3388   -1.4909    6.0608 C   0  0  0  0  0  0  0  0  0  0  0  0
   -4.3650   -1.6934    2.3513 C   0  0  0  0  0  0  0  0  0  0  0  0
   -1.2879   -2.8636    5.4861 C   0  0  0  0  0  0  0  0  0  0  0  0
   -1.4442   -3.9479    3.3136 C   0  0  0  0  0  0  0  0  0  0  0  0
    0.6421   -4.0037    4.5483 C   0  0  0  0  0  0  0  0  0  0  0  0
    0.0538   -3.2683    5.5813 C   0  0  0  0  0  0  0  0  0  0  0  0
   -0.0325   -3.9701    3.9724 C   0  0  0  0  0  0  0  0  0  0  0  0
   -1.0934   -4.5969    3.3133 C   0  0  0  0  0  0  0  0  0  0  0  0
   -4.5358   -1.3998    4.6673 C   0  0  0  0  0  0  0  0  0  0  0  0
   -5.1695   -0.7788    6.8773 N   0  0  0  0  0  0  0  0  0  0  0  0
   -2.1988   -4.2824    2.1915 O   0  0  0  0  0  0  0  0  0  0  0  0
   -5.7259   -0.7143    2.5481 S   0  0  0  0  0  0  0  0  0  0  0  0
   -7.2212    0.8647    7.4909 Cl  0  0  0  0  0  0  0  0  0  0  0  0
   -3.6910   -3.1382    7.2811 H   0  0  0  0  0  0  0  0  0  0  0  0
   -3.1418   -4.4458    2.6854 H   0  0  0  0  0  0  0  0  0  0  0  0
   -1.5495   -1.0465    4.8132 H   0  0  0  0  0  0  0  0  0  0  0  0
   -1.4767   -2.3436    7.5868 H   0  0  0  0  0  0  0  0  0  0  0  0
   -1.7854   -1.0082    6.4424 H   0  0  0  0  0  0  0  0  0  0  0  0
   -3.0719   -2.9140    4.2662 H   0  0  0  0  0  0  0  0  0  0  0  0
    0.3603   -4.9129    2.6209 H   0  0  0  0  0  0  0  0  0  0  0  0
    0.6186   -2.2106    5.0289 H   0  0  0  0  0  0  0  0  0  0  0  0
   -3.9610   -2.0060    1.3974 H   0  0  0  0  0  0  0  0  0  0  0  0
    1.6765   -4.3128    4.6264 H   0  0  0  0  0  0  0  0  0  0  0  0
    0.6437   -3.0178    6.4543 H   0  0  0  0  0  0  0  0  0  0  0  0
    0.9194   -4.4761    4.0685 H   0  0  0  0  0  0  0  0  0  0  0  0
   -0.9636   -5.5894    2.9014 H   0  0  0  0  0  0  0  0  0  0  0  0
   -1.8019   -4.8148    1.4260 H   0  0  0  0  0  0  0  0  0  0  0  0
  3  4  4  0
  4  5  4  0
  4  6  1  0
  1  7  4  0
  1  8  4  0
  2  9  1  0
  5 12  4  0
  2 13  1  0
  6 14  4  0
 10 15  4  0
  9 15  1  0
 11 16  4  0
 10 16  4  0
 11 17  4  0
 17 18  4  0
 15 18  4  0
 12 19  4  0
 19 20  4  0
  3 20  4  0
  6 21  4  0
 13 21  4  0
  7 21  4  0
 13 22  4  0
  8 22  4  0
 16 23  1  0
 14 24  4  0
  7 24  4  0
  8 25  1  0
  2 26  1  0
  3 27  1  0
  5 28  1  0
  9 29  1  0
  9 30  1  0
 10 31  1  0
 11 32  1  0
 12 33  1  0
 14 34  1  0
 17 35  1  0
 18 36  1  0
 19 37  1  0
 20 38  1  0
 23 39  1  0
M  END
