
     RDKit          3D

 45 51  0  0  0  0  0  0  0  0999 V2000
   16.2596   47.3491   38.6731 C   0  0  2  0  0  0  0  0  0  0  0  0
   16.4275   48.0831   37.3292 C   0  0  0  0  0  0  0  0  0  0  0  0
   14.9141   52.3778   37.8786 C   0  0  1  0  0  0  0  0  0  0  0  0
   11.0353   58.8727   37.5345 N   0  0  0  0  0  0  0  0  0  0  0  0
   12.3122   58.4222   37.4593 C   0  0  0  0  0  0  0  0  0  0  0  0
   12.5217   57.1387   37.3502 N   0  0  0  0  0  0  0  0  0  0  0  0
   13.8253   56.7972   37.2987 C   0  0  0  0  0  0  0  0  0  0  0  0
   14.9169   57.6313   37.3254 C   0  0  0  0  0  0  0  0  0  0  0  0
   16.0865   56.9167   37.2719 N   0  0  0  0  0  0  0  0  0  0  0  0
   15.6993   55.6564   37.2137 C   0  0  0  0  0  0  0  0  0  0  0  0
   14.3285   55.5313   37.2423 N   0  0  0  0  0  0  0  0  0  0  0  0
   13.6105   54.2699   37.2468 C   0  0  2  0  0  0  0  0  0  0  0  0
   13.2989   53.9361   38.6278 O   0  0  0  0  0  0  0  0  0  0  0  0
   13.7796   52.6003   38.8790 C   0  0  2  0  0  0  0  0  0  0  0  0
   14.2199   52.4719   40.3364 C   0  0  0  0  0  0  0  0  0  0  0  0
   14.6230   51.1392   40.6162 O   0  0  0  0  0  0  0  0  0  0  0  0
   15.6596   50.9086   41.8172 P   0  0  1  0  0  5  0  0  0  0  0  0
   16.8367   51.8166   41.8667 O   0  0  0  0  0  0  0  0  0  0  0  0
   14.7331   50.9675   43.1172 O   0  0  0  0  0  0  0  0  0  0  0  0
   16.0079   49.3410   41.7114 O   0  0  0  0  0  0  0  0  0  0  0  0
   16.4968   48.9015   40.4513 C   0  0  2  0  0  0  0  0  0  0  0  0
   15.4308   48.1028   39.7116 C   0  0  1  0  0  0  0  0  0  0  0  0
   14.3794   48.8593   39.1467 O   0  0  0  0  0  0  0  0  0  0  0  0
   17.1164   49.3141   37.4722 O   0  0  0  0  0  0  0  0  0  0  0  0
   16.5571   50.6673   36.8375 P   0  0  1  0  0  5  0  0  0  0  0  0
   17.5581   51.7689   36.7110 O   0  0  0  0  0  0  0  0  0  0  0  0
   15.9968   50.2474   35.4012 O   0  0  0  0  0  0  0  0  0  0  0  0
   15.2143   51.0154   37.6431 O   0  0  0  0  0  0  0  0  0  0  0  0
   14.3350   53.0553   36.6420 C   0  0  2  0  0  0  0  0  0  0  0  0
   13.3822   52.1813   36.0057 O   0  0  0  0  0  0  0  0  0  0  0  0
   17.5424   47.0911   39.3024 O   0  0  0  0  0  0  0  0  0  0  0  0
   17.5733   47.8251   40.5496 C   0  0  1  0  0  0  0  0  0  0  0  0
   18.9011   48.3251   40.8454 N   0  0  0  0  0  0  0  0  0  0  0  0
   19.7444   48.8449   39.8927 C   0  0  0  0  0  0  0  0  0  0  0  0
   20.8807   49.2561   40.4078 N   0  0  0  0  0  0  0  0  0  0  0  0
   20.7779   48.9652   41.7533 C   0  0  0  0  0  0  0  0  0  0  0  0
   21.6557   49.1702   42.8306 C   0  0  0  0  0  0  0  0  0  0  0  0
   22.9140   49.7466   42.6897 N   0  0  0  0  0  0  0  0  0  0  0  0
   21.2499   48.8194   44.0692 N   0  0  0  0  0  0  0  0  0  0  0  0
   20.0331   48.2513   44.2046 C   0  0  0  0  0  0  0  0  0  0  0  0
   19.1186   47.9953   43.2527 N   0  0  0  0  0  0  0  0  0  0  0  0
   19.5519   48.3847   42.0453 C   0  0  0  0  0  0  0  0  0  0  0  0
   14.6763   59.0590   37.4327 C   0  0  0  0  0  0  0  0  0  0  0  0
   15.5388   59.9304   37.4595 O   0  0  0  0  0  0  0  0  0  0  0  0
   13.3209   59.3588   37.5139 N   0  0  0  0  0  0  0  0  0  0  0  0
  1  2  1  6
  4  5  1  0
  5  6  4  0
  6  7  4  0
  7  8  4  0
  8  9  4  0
  9 10  4  0
  7 11  4  0
 10 11  4  0
 12 11  1  1
 12 13  1  0
  3 14  1  0
 13 14  1  0
 14 15  1  1
 15 16  1  0
 16 17  1  0
 17 18  2  0
 17 19  1  1
 17 20  1  0
 21 20  1  1
  1 22  1  0
 21 22  1  0
 22 23  1  6
  2 24  1  0
 24 25  1  0
 25 26  2  0
 25 27  1  6
 25 28  1  0
  3 28  1  6
  3 29  1  0
 12 29  1  0
 29 30  1  1
  1 31  1  0
 31 32  1  0
 21 32  1  0
 32 33  1  6
 33 34  4  0
 34 35  4  0
 35 36  4  0
 36 37  4  0
 37 38  1  0
 37 39  4  0
 39 40  4  0
 40 41  4  0
 36 42  4  0
 33 42  4  0
 41 42  4  0
  8 43  4  0
 43 44  2  0
  5 45  4  0
 43 45  4  0
M  END
