7L5F_XNG_A_304
     RDKit          3D

 18 17  0  0  0  0  0  0  0  0999 V2000
   11.4150   35.3980   26.7920 C   0  0  0  0  0  0  0  0  0  0  0  0
    9.3290   35.1550   22.9960 C   0  0  0  0  0  0  0  0  0  0  0  0
    9.5390   36.6450   23.2240 C   0  0  0  0  0  0  0  0  0  0  0  0
    9.6820   37.4650   21.9540 C   0  0  0  0  0  0  0  0  0  0  0  0
   10.5170   38.6930   22.2780 C   0  0  0  0  0  0  0  0  0  0  0  0
   10.9820   39.3410   20.9900 C   0  0  0  0  0  0  0  0  0  0  0  0
    9.7750   39.5570   20.0820 C   0  0  0  0  0  0  0  0  0  0  0  0
    9.8370   40.9140   19.4140 C   0  0  0  0  0  0  0  0  0  0  0  0
   11.1870   41.0500   18.7460 C   0  0  0  0  0  0  0  0  0  0  0  0
   10.8670   34.8940   28.1190 C   0  0  0  0  0  0  0  0  0  0  0  0
   11.9440   34.0990   28.8490 C   0  0  0  0  0  0  0  0  0  0  0  0
   12.5870   33.2200   27.7970 C   0  0  0  0  0  0  0  0  0  0  0  0
   11.3470   35.0150   24.4360 C   0  0  0  0  0  0  0  0  0  0  0  0
   10.6440   34.4180   23.2410 C   0  0  0  0  0  0  0  0  0  0  0  0
   10.9330   34.6350   25.6460 N   0  0  0  0  0  0  0  0  0  0  0  0
   12.2630   35.8280   24.2830 O   0  0  0  0  0  0  0  0  0  0  0  0
   11.8380   32.3920   27.2720 O   0  0  0  0  0  0  0  0  0  0  0  0
   13.7930   33.3540   27.4830 O   0  0  0  0  0  0  0  0  0  0  0  0
  2  3  1  0
  3  4  1  0
  4  5  1  0
  5  6  1  0
  6  7  1  0
  7  8  1  0
  8  9  1  0
  1 10  1  0
 10 11  1  0
 11 12  1  0
  2 14  1  0
 13 14  1  0
 13 15  1  0
  1 15  1  0
 13 16  2  0
 12 17  2  0
 12 18  1  0
M  END
$$$$
