7UYB_OK0_A_303
     RDKit          3D

 50 53  0  0  0  0  0  0  0  0999 V2000
    1.0392   -0.3017   -0.0345 C   0  0  0  0  0  0  0  0  0  0  0  0
    1.2694   -0.4139    1.3390 C   0  0  0  0  0  0  0  0  0  0  0  0
    0.7001   -1.4676    2.0749 C   0  0  0  0  0  0  0  0  0  0  0  0
    0.9559   -1.5760    3.5672 C   0  0  0  0  0  0  0  0  0  0  0  0
   -0.3530   -1.5229    4.3752 C   0  0  0  0  0  0  0  0  0  0  0  0
   -0.0763   -1.5695    5.8956 C   0  0  0  0  0  0  0  0  0  0  0  0
    1.5957   -3.2562    5.3912 C   0  0  0  0  0  0  0  0  0  0  0  0
    1.7682   -2.8448    3.9169 C   0  0  0  0  0  0  0  0  0  0  0  0
   -0.0968   -2.4135    1.4026 C   0  0  0  0  0  0  0  0  0  0  0  0
   -0.2702   -0.9296   -4.9667 C   0  0  0  0  0  0  0  0  0  0  0  0
   -1.5462   -1.2461   -6.9435 F   0  0  0  0  0  0  0  0  0  0  0  0
   -0.2920   -0.8869   -6.4859 C   0  0  0  0  0  0  0  0  0  0  0  0
    0.0371    0.3736   -6.9476 F   0  0  0  0  0  0  0  0  0  0  0  0
    0.6300   -1.7665   -7.0290 F   0  0  0  0  0  0  0  0  0  0  0  0
   -0.8125    0.1036   -4.1402 C   0  0  0  0  0  0  0  0  0  0  0  0
   -1.7659    1.4609   -4.8222 S   0  0  0  0  0  6  0  0  0  0  0  0
   -2.3733    1.1160   -6.1517 O   0  0  0  0  0  0  0  0  0  0  0  0
   -0.7486    2.8485   -4.9997 N   0  0  0  0  0  0  0  0  0  0  0  0
   -2.9005    1.7999   -3.8961 O   0  0  0  0  0  0  0  0  0  0  0  0
   -0.6272    0.0264   -2.7274 C   0  0  0  0  0  0  0  0  0  0  0  0
   -1.0678    1.1275   -1.8389 C   0  0  0  0  0  0  0  0  0  0  0  0
   -1.8795    0.9838   -0.7791 N   0  0  0  0  0  0  0  0  0  0  0  0
   -1.9888    2.1845   -0.2409 N   0  0  0  0  0  0  0  0  0  0  0  0
   -1.2623    3.0388   -0.9464 N   0  0  0  0  0  0  0  0  0  0  0  0
   -0.6703    2.4086   -1.9517 N   0  0  0  0  0  0  0  0  0  0  0  0
    0.2783   -2.0707   -4.3557 C   0  0  0  0  0  0  0  0  0  0  0  0
    0.3918   -2.1661   -2.9767 C   0  0  0  0  0  0  0  0  0  0  0  0
   -0.0198   -1.1180   -2.1540 C   0  0  0  0  0  0  0  0  0  0  0  0
    0.2296   -1.2367   -0.6971 C   0  0  0  0  0  0  0  0  0  0  0  0
   -0.3265   -2.2999    0.0290 C   0  0  0  0  0  0  0  0  0  0  0  0
    1.2647   -2.0907    6.2190 N   0  0  0  0  0  0  0  0  0  0  0  0
    1.4937    0.5145   -0.5828 H   0  0  0  0  0  0  0  0  0  0  0  0
    1.8943    0.3240    1.8264 H   0  0  0  0  0  0  0  0  0  0  0  0
    1.5623   -0.6990    3.8916 H   0  0  0  0  0  0  0  0  0  0  0  0
   -0.9962   -2.3884    4.1049 H   0  0  0  0  0  0  0  0  0  0  0  0
   -0.9144   -0.5952    4.1273 H   0  0  0  0  0  0  0  0  0  0  0  0
   -0.8578   -2.1867    6.3939 H   0  0  0  0  0  0  0  0  0  0  0  0
   -0.1554   -0.5404    6.3071 H   0  0  0  0  0  0  0  0  0  0  0  0
    2.5412   -3.7137    5.7556 H   0  0  0  0  0  0  0  0  0  0  0  0
    0.7957   -4.0266    5.4800 H   0  0  0  0  0  0  0  0  0  0  0  0
    2.8430   -2.6454    3.7120 H   0  0  0  0  0  0  0  0  0  0  0  0
    1.4663   -3.7041    3.2799 H   0  0  0  0  0  0  0  0  0  0  0  0
   -0.5409   -3.2419    1.9390 H   0  0  0  0  0  0  0  0  0  0  0  0
   -1.3039    3.5737   -5.5064 H   0  0  0  0  0  0  0  0  0  0  0  0
    0.0420    2.5793   -5.6258 H   0  0  0  0  0  0  0  0  0  0  0  0
   -2.3455    0.1171   -0.4305 H   0  0  0  0  0  0  0  0  0  0  0  0
    0.6392   -2.9020   -4.9479 H   0  0  0  0  0  0  0  0  0  0  0  0
    0.8460   -3.0521   -2.5484 H   0  0  0  0  0  0  0  0  0  0  0  0
   -0.9482   -3.0351   -0.4673 H   0  0  0  0  0  0  0  0  0  0  0  0
    1.2616   -2.3930    7.2212 H   0  0  0  0  0  0  0  0  0  0  0  0
  1  2  2  0
  2  3  1  0
  3  4  1  0
  4  5  1  0
  5  6  1  0
  7  8  1  0
  4  8  1  0
  3  9  2  0
 10 12  1  0
 11 12  1  0
 12 13  1  0
 12 14  1  0
 10 15  2  0
 15 16  1  0
 16 17  2  0
 16 18  1  0
 16 19  2  0
 15 20  1  0
 20 21  1  0
 21 22  1  0
 22 23  1  0
 23 24  2  0
 24 25  1  0
 21 25  2  0
 10 26  1  0
 26 27  2  0
 20 28  2  0
 27 28  1  0
  1 29  1  0
 28 29  1  0
  9 30  1  0
 29 30  2  0
  7 31  1  0
  6 31  1  0
  1 32  1  0
  2 33  1  0
  4 34  1  0
  5 35  1  0
  5 36  1  0
  6 37  1  0
  6 38  1  0
  7 39  1  0
  7 40  1  0
  8 41  1  0
  8 42  1  0
  9 43  1  0
 18 44  1  0
 18 45  1  0
 22 46  1  0
 26 47  1  0
 27 48  1  0
 30 49  1  0
 31 50  1  0
M  END
