1V4S_MRK_A_501
     RDKit          3D

 35 37  0  0  0  0  0  0  0  0999 V2000
    0.5859   -2.5841    4.0050 S   0  0  0  0  0  0  0  0  0  0  0  0
    0.2966   -2.3238    5.6409 C   0  0  0  0  0  0  0  0  0  0  0  0
    0.3396   -0.9536    5.8708 C   0  0  0  0  0  0  0  0  0  0  0  0
    0.5931   -0.1904    4.7741 N   0  0  0  0  0  0  0  0  0  0  0  0
    0.7619   -0.9424    3.6651 C   0  0  0  0  0  0  0  0  0  0  0  0
    1.0090   -0.3640    2.3750 N   0  0  0  0  0  0  0  0  0  0  0  0
    1.3191   -1.1101    1.1854 C   0  0  0  0  0  0  0  0  0  0  0  0
    1.5847   -2.3403    1.2529 O   0  0  0  0  0  0  0  0  0  0  0  0
    2.2885   -0.6962   -1.1239 C   0  0  0  0  0  0  0  0  0  0  0  0
    1.3067   -0.4389   -0.1340 C   0  0  0  0  0  0  0  0  0  0  0  0
    0.2562    0.4484   -0.4257 C   0  0  0  0  0  0  0  0  0  0  0  0
    0.1544    1.0484   -1.6841 C   0  0  0  0  0  0  0  0  0  0  0  0
    1.1170    0.7810   -2.6625 C   0  0  0  0  0  0  0  0  0  0  0  0
    1.0331    1.3616   -3.8859 F   0  0  0  0  0  0  0  0  0  0  0  0
    2.1742   -0.0865   -2.3830 C   0  0  0  0  0  0  0  0  0  0  0  0
   -1.2130    2.1562   -2.0338 S   0  0  0  0  0  0  0  0  0  0  0  0
   -3.0993    0.0986   -2.0173 N   0  0  0  0  0  0  0  0  0  0  0  0
   -2.2233    0.8434   -2.7237 C   0  0  0  0  0  0  0  0  0  0  0  0
   -2.1735    0.4952   -4.0262 N   0  0  0  0  0  0  0  0  0  0  0  0
   -3.0498   -0.5254   -4.1275 C   0  0  0  0  0  0  0  0  0  0  0  0
   -3.6118   -0.7780   -2.8956 C   0  0  0  0  0  0  0  0  0  0  0  0
   -3.3610    0.1333   -0.5823 C   0  0  0  0  0  0  0  0  0  0  0  0
    3.4307   -1.5225   -0.8593 N   0  0  0  0  0  0  0  0  0  0  0  0
    0.1059   -3.0857    6.3845 H   0  0  0  0  0  0  0  0  0  0  0  0
    0.1802   -0.5171    6.8475 H   0  0  0  0  0  0  0  0  0  0  0  0
    0.9767    0.6782    2.3078 H   0  0  0  0  0  0  0  0  0  0  0  0
   -0.5023    0.6563    0.3188 H   0  0  0  0  0  0  0  0  0  0  0  0
    2.9193   -0.2731   -3.1464 H   0  0  0  0  0  0  0  0  0  0  0  0
   -3.2585   -1.0600   -5.0443 H   0  0  0  0  0  0  0  0  0  0  0  0
   -4.3329   -1.5497   -2.6586 H   0  0  0  0  0  0  0  0  0  0  0  0
   -4.4042   -0.1887   -0.3780 H   0  0  0  0  0  0  0  0  0  0  0  0
   -2.6630   -0.5537   -0.0606 H   0  0  0  0  0  0  0  0  0  0  0  0
   -3.2308    1.1630   -0.1886 H   0  0  0  0  0  0  0  0  0  0  0  0
    3.6922   -1.8143    0.1071 H   0  0  0  0  0  0  0  0  0  0  0  0
    4.0951   -1.7672   -1.6271 H   0  0  0  0  0  0  0  0  0  0  0  0
  1  2  1  0
  2  3  2  0
  3  4  1  0
  1  5  1  0
  4  5  2  0
  5  6  1  0
  6  7  1  0
  7  8  2  0
  7 10  1  0
  9 10  2  0
 10 11  1  0
 11 12  2  0
 12 13  1  0
 13 14  1  0
  9 15  1  0
 13 15  2  0
 12 16  1  0
 16 18  1  0
 17 18  1  0
 18 19  2  0
 19 20  1  0
 17 21  1  0
 20 21  2  0
 17 22  1  0
  9 23  1  0
  2 24  1  0
  3 25  1  0
  6 26  1  0
 11 27  1  0
 15 28  1  0
 20 29  1  0
 21 30  1  0
 22 31  1  0
 22 32  1  0
 22 33  1  0
 23 34  1  0
 23 35  1  0
M  END
