7P4J_5JK_A_904
     RDKit          3D

 75 78  0  0  0  0  0  0  0  0999 V2000
   12.8113   25.7859   -3.8931 C   0  0  0  0  0  0  0  0  0  0  0  0
   11.9302   24.4886   -4.0237 C   0  0  2  0  0  0  0  0  0  0  0  0
   10.6794   24.8123   -3.3221 C   0  0  0  0  0  0  0  0  0  0  0  0
   10.9148   25.1123   -1.7449 C   0  0  0  0  0  0  0  0  0  0  0  0
   11.6460   23.9590   -1.0600 C   0  0  2  0  0  0  0  0  0  0  0  0
   11.8898   24.2584    0.5021 C   0  0  1  0  0  0  0  0  0  0  0  0
   12.6265   25.6342    0.6346 C   0  0  0  0  0  0  0  0  0  0  0  0
   10.4678   24.4176    1.1445 C   0  0  0  0  0  0  0  0  0  0  0  0
   10.5301   24.3488    2.6627 C   0  0  0  0  0  0  0  0  0  0  0  0
   11.1504   23.0478    3.0407 C   0  0  2  0  0  0  0  0  0  0  0  0
   11.0750   22.8646    4.4428 O   0  0  0  0  0  0  0  0  0  0  0  0
   12.6210   22.9506    2.6094 C   0  0  0  0  0  0  0  0  0  0  0  0
   12.7307   23.1921    1.1050 C   0  0  0  0  0  0  0  0  0  0  0  0
   13.9644   22.6356    0.3072 C   0  0  0  0  0  0  0  0  0  0  0  0
   13.6594   22.3361   -1.1304 C   0  0  1  0  0  0  0  0  0  0  0  0
   12.7602   21.3050   -1.1615 O   0  0  0  0  0  0  0  0  0  0  0  0
   12.9896   23.6286   -1.8423 C   0  0  1  0  0  0  0  0  0  0  0  0
   12.7314   23.3509   -3.2805 C   0  0  2  0  0  0  0  0  0  0  0  0
   13.9858   23.0063   -4.3009 C   0  0  0  0  0  0  0  0  0  0  0  0
   13.2829   23.2367   -5.8418 C   0  0  0  0  0  0  0  0  0  0  0  0
   11.9575   24.0529   -5.6156 C   0  0  2  0  0  0  0  0  0  0  0  0
   11.9608   25.0835   -6.6098 C   0  0  2  0  0  0  0  0  0  0  0  0
   13.2670   25.9307   -6.6127 C   0  0  0  0  0  0  0  0  0  0  0  0
   10.7854   26.0240   -6.1047 C   0  0  0  0  0  0  0  0  0  0  0  0
    9.7331   26.3796   -7.1926 C   0  0  0  0  0  0  0  0  0  0  0  0
    9.9956   27.9042   -7.5261 C   0  0  0  0  0  0  0  0  0  0  0  0
   10.4597   28.1037   -9.0081 C   0  0  2  0  0  0  0  0  0  0  0  0
   12.0094   27.9263   -9.0736 C   0  0  0  0  0  0  0  0  0  0  0  0
   10.0520   29.5101   -9.5288 C   0  0  0  0  0  0  0  0  0  0  0  0
   12.8235   26.1075   -2.8726 H   0  0  0  0  0  0  0  0  0  0  0  0
   12.3994   26.5601   -4.5062 H   0  0  0  0  0  0  0  0  0  0  0  0
   13.8102   25.5722   -4.2117 H   0  0  0  0  0  0  0  0  0  0  0  0
   10.0076   23.9851   -3.4181 H   0  0  0  0  0  0  0  0  0  0  0  0
   10.2762   25.6984   -3.7660 H   0  0  0  0  0  0  0  0  0  0  0  0
    9.9652   25.2520   -1.2718 H   0  0  0  0  0  0  0  0  0  0  0  0
   11.5170   25.9922   -1.6562 H   0  0  0  0  0  0  0  0  0  0  0  0
   11.0287   23.0858   -1.0961 H   0  0  0  0  0  0  0  0  0  0  0  0
   12.0237   26.4048    0.2013 H   0  0  0  0  0  0  0  0  0  0  0  0
   13.5656   25.5866    0.1240 H   0  0  0  0  0  0  0  0  0  0  0  0
   12.7935   25.8512    1.6689 H   0  0  0  0  0  0  0  0  0  0  0  0
    9.8350   23.6324    0.7868 H   0  0  0  0  0  0  0  0  0  0  0  0
   10.0802   25.3757    0.8678 H   0  0  0  0  0  0  0  0  0  0  0  0
    9.5425   24.4118    3.0697 H   0  0  0  0  0  0  0  0  0  0  0  0
   11.1091   25.1621    3.0478 H   0  0  0  0  0  0  0  0  0  0  0  0
   10.6027   22.2840    2.5292 H   0  0  0  0  0  0  0  0  0  0  0  0
   11.5767   23.5653    4.8879 H   0  0  0  0  0  0  0  0  0  0  0  0
   12.9967   21.9762    2.8419 H   0  0  0  0  0  0  0  0  0  0  0  0
   13.1938   23.6890    3.1305 H   0  0  0  0  0  0  0  0  0  0  0  0
   14.8940   22.4903    0.7310 H   0  0  0  0  0  0  0  0  0  0  0  0
   14.5614   22.0825   -1.6470 H   0  0  0  0  0  0  0  0  0  0  0  0
   11.9549   21.5637   -0.6865 H   0  0  0  0  0  0  0  0  0  0  0  0
   13.6473   24.4717   -1.8037 H   0  0  0  0  0  0  0  0  0  0  0  0
   12.1822   22.4461   -3.1235 H   0  0  0  0  0  0  0  0  0  0  0  0
   14.3204   21.9978   -4.1754 H   0  0  0  0  0  0  0  0  0  0  0  0
   14.8517   23.6117   -4.1321 H   0  0  0  0  0  0  0  0  0  0  0  0
   13.0617   22.2914   -6.2914 H   0  0  0  0  0  0  0  0  0  0  0  0
   13.9501   23.7589   -6.4953 H   0  0  0  0  0  0  0  0  0  0  0  0
   11.0325   23.5340   -5.7567 H   0  0  0  0  0  0  0  0  0  0  0  0
   11.8668   24.6772   -7.5952 H   0  0  0  0  0  0  0  0  0  0  0  0
   13.4129   26.3644   -5.6455 H   0  0  0  0  0  0  0  0  0  0  0  0
   13.1864   26.7080   -7.3436 H   0  0  0  0  0  0  0  0  0  0  0  0
   14.0993   25.3020   -6.8509 H   0  0  0  0  0  0  0  0  0  0  0  0
   11.2169   26.9352   -5.7462 H   0  0  0  0  0  0  0  0  0  0  0  0
   10.2655   25.4803   -5.3438 H   0  0  0  0  0  0  0  0  0  0  0  0
    8.7409   26.2415   -6.8167 H   0  0  0  0  0  0  0  0  0  0  0  0
    9.8202   25.7562   -8.0578 H   0  0  0  0  0  0  0  0  0  0  0  0
   10.7564   28.2758   -6.8719 H   0  0  0  0  0  0  0  0  0  0  0  0
    9.0778   28.4371   -7.3904 H   0  0  0  0  0  0  0  0  0  0  0  0
    9.9843   27.3762   -9.6323 H   0  0  0  0  0  0  0  0  0  0  0  0
   12.4788   28.6563   -8.4477 H   0  0  0  0  0  0  0  0  0  0  0  0
   12.3409   28.0555  -10.0827 H   0  0  0  0  0  0  0  0  0  0  0  0
   12.2707   26.9454   -8.7353 H   0  0  0  0  0  0  0  0  0  0  0  0
   10.5131   30.2621   -8.9232 H   0  0  0  0  0  0  0  0  0  0  0  0
    8.9883   29.6145   -9.4786 H   0  0  0  0  0  0  0  0  0  0  0  0
   10.3739   29.6221  -10.5430 H   0  0  0  0  0  0  0  0  0  0  0  0
  2  1  1  6
  2  3  1  0
  3  4  1  0
  5  4  1  0
  5  6  1  0
  6  7  1  6
  6  8  1  0
  8  9  1  0
  9 10  1  0
 10 11  1  0
 10 12  1  0
 12 13  1  0
  6 13  1  0
 13 14  2  0
 14 15  1  0
 15 16  1  0
 17 15  1  0
  5 17  1  0
 17 18  1  0
  2 18  1  0
 18 19  1  0
 19 20  1  0
 21 20  1  0
  2 21  1  0
 21 22  1  0
 22 23  1  0
 22 24  1  0
 24 25  1  0
 25 26  1  0
 26 27  1  0
 27 28  1  0
 27 29  1  0
  1 30  1  0
  1 31  1  0
  1 32  1  0
  3 33  1  0
  3 34  1  0
  4 35  1  0
  4 36  1  0
  5 37  1  1
  7 38  1  0
  7 39  1  0
  7 40  1  0
  8 41  1  0
  8 42  1  0
  9 43  1  0
  9 44  1  0
 10 45  1  6
 11 46  1  0
 12 47  1  0
 12 48  1  0
 14 49  1  0
 15 50  1  6
 16 51  1  0
 17 52  1  6
 18 53  1  1
 19 54  1  0
 19 55  1  0
 20 56  1  0
 20 57  1  0
 21 58  1  6
 22 59  1  6
 23 60  1  0
 23 61  1  0
 23 62  1  0
 24 63  1  0
 24 64  1  0
 25 65  1  0
 25 66  1  0
 26 67  1  0
 26 68  1  0
 27 69  1  6
 28 70  1  0
 28 71  1  0
 28 72  1  0
 29 73  1  0
 29 74  1  0
 29 75  1  0
M  END
