1J3J_CP6_A_609
     RDKit          3D

 17 18  0  0  0  0  0  0  0  0999 V2000
   50.0337   15.2165   52.9635 N   0  0  0  0  0  0  0  0  0  0  0  0
   50.5475   14.9253   54.1881 C   0  0  0  0  0  0  0  0  0  0  0  0
   49.0983   16.1947   52.8731 C   0  0  0  0  0  0  0  0  0  0  0  0
   48.6637   16.8922   53.9878 C   0  0  0  0  0  0  0  0  0  0  0  0
   49.1967   16.5813   55.2180 C   0  0  0  0  0  0  0  0  0  0  0  0
   50.1113   15.6175   55.2727 N   0  0  0  0  0  0  0  0  0  0  0  0
   47.6624   17.9226   53.8109 C   0  0  0  0  0  0  0  0  0  0  0  0
   47.9740   19.0732   53.1016 C   0  0  0  0  0  0  0  0  0  0  0  0
   47.0128   20.0766   52.9290 C   0  0  0  0  0  0  0  0  0  0  0  0
   45.7561   19.9229   53.4629 C   0  0  0  0  0  0  0  0  0  0  0  0
   45.4474   18.7782   54.1683 C   0  0  0  0  0  0  0  0  0  0  0  0
   46.3893   17.7880   54.3411 C   0  0  0  0  0  0  0  0  0  0  0  0
   48.5418   16.5158   51.5944 N   0  0  0  0  0  0  0  0  0  0  0  0
   51.5323   13.9029   54.2997 N   0  0  0  0  0  0  0  0  0  0  0  0
   48.7693   17.2868   56.4423 C   0  0  0  0  0  0  0  0  0  0  0  0
   49.3341   16.7283   57.7154 C   0  0  0  0  0  0  0  0  0  0  0  0
   44.5381   21.1691   53.2576 Cl  0  0  0  0  0  0  0  0  0  0  0  0
  1  2  2  0
  1  3  1  0
  3  4  2  0
  4  5  1  0
  2  6  1  0
  5  6  2  0
  4  7  1  0
  7  8  2  0
  8  9  1  0
  9 10  2  0
 10 11  1  0
  7 12  1  0
 11 12  2  0
  3 13  1  0
  2 14  1  0
  5 15  1  0
 15 16  1  0
 10 17  1  0
M  END
$$$$
