1J3J_CP6_A_609
     RDKit          3D

 17 18  0  0  0  0  0  0  0  0999 V2000
   42.8470   22.4546   47.3683 N   0  0  0  0  0  0  0  0  0  0  0  0
   41.5221   22.1789   47.2385 C   0  0  0  0  0  0  0  0  0  0  0  0
   43.5536   21.7903   48.3168 C   0  0  0  0  0  0  0  0  0  0  0  0
   42.9599   20.8504   49.1426 C   0  0  0  0  0  0  0  0  0  0  0  0
   41.6173   20.5866   48.9945 C   0  0  0  0  0  0  0  0  0  0  0  0
   40.9532   21.2548   48.0559 N   0  0  0  0  0  0  0  0  0  0  0  0
   43.7802   20.1829   50.1311 C   0  0  0  0  0  0  0  0  0  0  0  0
   44.7173   19.2425   49.7292 C   0  0  0  0  0  0  0  0  0  0  0  0
   45.5121   18.5893   50.6790 C   0  0  0  0  0  0  0  0  0  0  0  0
   45.3654   18.8796   52.0140 C   0  0  0  0  0  0  0  0  0  0  0  0
   44.4329   19.8151   52.4125 C   0  0  0  0  0  0  0  0  0  0  0  0
   43.6483   20.4605   51.4822 C   0  0  0  0  0  0  0  0  0  0  0  0
   44.9490   22.0669   48.4728 N   0  0  0  0  0  0  0  0  0  0  0  0
   40.7667   22.8655   46.2459 N   0  0  0  0  0  0  0  0  0  0  0  0
   40.9284   19.5991   49.8485 C   0  0  0  0  0  0  0  0  0  0  0  0
   39.4480   19.5019   49.6231 C   0  0  0  0  0  0  0  0  0  0  0  0
   46.3519   18.0717   53.2191 Cl  0  0  0  0  0  0  0  0  0  0  0  0
  1  2  2  0
  1  3  1  0
  3  4  2  0
  4  5  1  0
  2  6  1  0
  5  6  2  0
  4  7  1  0
  7  8  2  0
  8  9  1  0
  9 10  2  0
 10 11  1  0
  7 12  1  0
 11 12  2  0
  3 13  1  0
  2 14  1  0
  5 15  1  0
 15 16  1  0
 10 17  1  0
M  END
$$$$
