1J3J_CP6_A_609
     RDKit          3D

 17 18  0  0  0  0  0  0  0  0999 V2000
   22.9312   -9.0281   23.7331 N   0  0  0  0  0  0  0  0  0  0  0  0
   21.5779   -9.0016   23.8604 C   0  0  0  0  0  0  0  0  0  0  0  0
   23.5292   -8.0523   23.0048 C   0  0  0  0  0  0  0  0  0  0  0  0
   22.7983   -7.0447   22.3981 C   0  0  0  0  0  0  0  0  0  0  0  0
   21.4293   -7.0368   22.5394 C   0  0  0  0  0  0  0  0  0  0  0  0
   20.8740   -8.0072   23.2592 N   0  0  0  0  0  0  0  0  0  0  0  0
   23.5084   -6.0384   21.6371 C   0  0  0  0  0  0  0  0  0  0  0  0
   23.5327   -4.7253   22.0834 C   0  0  0  0  0  0  0  0  0  0  0  0
   24.2139   -3.7450   21.3515 C   0  0  0  0  0  0  0  0  0  0  0  0
   24.8613   -4.0827   20.1876 C   0  0  0  0  0  0  0  0  0  0  0  0
   24.8362   -5.3890   19.7448 C   0  0  0  0  0  0  0  0  0  0  0  0
   24.1675   -6.3573   20.4608 C   0  0  0  0  0  0  0  0  0  0  0  0
   24.9525   -8.0623   22.8554 N   0  0  0  0  0  0  0  0  0  0  0  0
   20.9349  -10.0171   24.6239 N   0  0  0  0  0  0  0  0  0  0  0  0
   20.5971   -5.9914   21.9119 C   0  0  0  0  0  0  0  0  0  0  0  0
   19.1284   -6.1061   22.1974 C   0  0  0  0  0  0  0  0  0  0  0  0
   25.7200   -2.8684   19.2566 Cl  0  0  0  0  0  0  0  0  0  0  0  0
  1  2  2  0
  1  3  1  0
  3  4  2  0
  4  5  1  0
  2  6  1  0
  5  6  2  0
  4  7  1  0
  7  8  2  0
  8  9  1  0
  9 10  2  0
 10 11  1  0
  7 12  1  0
 11 12  2  0
  3 13  1  0
  2 14  1  0
  5 15  1  0
 15 16  1  0
 10 17  1  0
M  END
$$$$
