1J3J_CP6_A_609
     RDKit          3D

 17 18  0  0  0  0  0  0  0  0999 V2000
   31.9022  -16.7472   27.7678 N   0  0  0  0  0  0  0  0  0  0  0  0
   31.3700  -15.4990   27.8520 C   0  0  0  0  0  0  0  0  0  0  0  0
   33.1096  -16.8938   27.1670 C   0  0  0  0  0  0  0  0  0  0  0  0
   33.8000  -15.8123   26.6460 C   0  0  0  0  0  0  0  0  0  0  0  0
   33.2431  -14.5573   26.7417 C   0  0  0  0  0  0  0  0  0  0  0  0
   32.0586  -14.4476   27.3361 N   0  0  0  0  0  0  0  0  0  0  0  0
   35.0836  -16.0488   26.0197 C   0  0  0  0  0  0  0  0  0  0  0  0
   36.1607  -16.4641   26.7888 C   0  0  0  0  0  0  0  0  0  0  0  0
   37.4066  -16.6915   26.1918 C   0  0  0  0  0  0  0  0  0  0  0  0
   37.5650  -16.5036   24.8400 C   0  0  0  0  0  0  0  0  0  0  0  0
   36.4931  -16.0904   24.0762 C   0  0  0  0  0  0  0  0  0  0  0  0
   35.2651  -15.8652   24.6584 C   0  0  0  0  0  0  0  0  0  0  0  0
   33.6872  -18.1991   27.0647 N   0  0  0  0  0  0  0  0  0  0  0  0
   30.1046  -15.3276   28.4821 N   0  0  0  0  0  0  0  0  0  0  0  0
   33.9295  -13.3676   26.2009 C   0  0  0  0  0  0  0  0  0  0  0  0
   33.1708  -12.0825   26.3578 C   0  0  0  0  0  0  0  0  0  0  0  0
   39.1184  -16.7832   24.0736 Cl  0  0  0  0  0  0  0  0  0  0  0  0
  1  2  2  0
  1  3  1  0
  3  4  2  0
  4  5  1  0
  2  6  1  0
  5  6  2  0
  4  7  1  0
  7  8  2  0
  8  9  1  0
  9 10  2  0
 10 11  1  0
  7 12  1  0
 11 12  2  0
  3 13  1  0
  2 14  1  0
  5 15  1  0
 15 16  1  0
 10 17  1  0
M  END
$$$$
