7C3U_AZG_B_202
     RDKit          3D

 11 12  0  0  0  0  0  0  0  0999 V2000
   17.2428   30.2217   45.8269 C   0  0  0  0  0  0  0  0  0  0  0  0
   17.1760   29.5459   44.6771 N   0  0  0  0  0  0  0  0  0  0  0  0
   18.1685   29.5821   43.7475 C   0  0  0  0  0  0  0  0  0  0  0  0
   18.0072   28.8246   42.5454 N   0  0  0  0  0  0  0  0  0  0  0  0
   19.2631   30.3259   43.9896 N   0  0  0  0  0  0  0  0  0  0  0  0
   19.3977   31.0323   45.1266 C   0  0  0  0  0  0  0  0  0  0  0  0
   20.5088   31.8090   45.4114 O   0  0  0  0  0  0  0  0  0  0  0  0
   18.3767   30.9874   46.0691 C   0  0  0  0  0  0  0  0  0  0  0  0
   18.2611   31.5955   47.2800 N   0  0  0  0  0  0  0  0  0  0  0  0
   17.0877   31.2011   47.7461 N   0  0  0  0  0  0  0  0  0  0  0  0
   16.4717   30.3968   46.9152 N   0  0  0  0  0  0  0  0  0  0  0  0
  1  2  2  0
  2  3  1  0
  3  4  1  0
  3  5  2  0
  5  6  1  0
  6  7  1  0
  1  8  1  0
  6  8  2  0
  8  9  1  0
  9 10  1  0
  1 11  1  0
 10 11  2  0
M  END
$$$$
