7ED2_A3P_A_301
     RDKit          3D

 42 44  0  0  0  0  0  0  0  0999 V2000
    3.4303   -2.8752    2.4062 P   0  0  2  0  0  5  0  0  0  0  0  0
    3.9432   -3.7506    3.5274 O   0  0  0  0  0  0  0  0  0  0  0  0
    3.9234   -3.5311    0.9272 O   0  0  0  0  0  0  0  0  0  0  0  0
    4.0795   -1.3197    2.5647 O   0  0  0  0  0  0  0  0  0  0  0  0
   -1.3946    0.9598    0.9417 P   0  0  2  0  0  5  0  0  0  0  0  0
   -0.8130    1.4640    2.2437 O   0  0  0  0  0  0  0  0  0  0  0  0
   -2.3887    2.1538    0.2694 O   0  0  0  0  0  0  0  0  0  0  0  0
   -2.3232   -0.4206    1.2485 O   0  0  0  0  0  0  0  0  0  0  0  0
   -0.1369    0.5535   -0.1359 O   0  0  0  0  0  0  0  0  0  0  0  0
    1.0354    0.3274    0.6116 C   0  0  0  0  0  0  0  0  0  0  0  0
    0.7541   -0.7162    1.7001 C   0  0  1  0  0  0  0  0  0  0  0  0
   -0.6377   -0.7652    1.9404 O   0  0  0  0  0  0  0  0  0  0  0  0
    1.2503   -2.1132    1.2984 C   0  0  1  0  0  0  0  0  0  0  0  0
    1.7240   -2.8036    2.4414 O   0  0  0  0  0  0  0  0  0  0  0  0
   -0.0167   -2.7638    0.8030 C   0  0  1  0  0  0  0  0  0  0  0  0
   -0.0342   -4.1487    1.0344 O   0  0  0  0  0  0  0  0  0  0  0  0
   -1.0902   -2.0608    1.6159 C   0  0  2  0  0  0  0  0  0  0  0  0
   -2.3419   -1.9828    0.8615 N   0  0  0  0  0  4  0  0  0  0  0  0
   -2.6264   -2.5351   -0.3475 C   0  0  0  0  0  0  0  0  0  0  0  0
   -3.9241   -2.3679   -0.7256 N   0  0  0  0  0  0  0  0  0  0  0  0
   -4.4505   -1.6905    0.3123 C   0  0  0  0  0  0  0  0  0  0  0  0
   -5.7557   -1.2572    0.5152 C   0  0  0  0  0  0  0  0  0  0  0  0
   -6.7799   -1.4738   -0.4555 N   0  0  0  0  0  0  0  0  0  0  0  0
   -6.0344   -0.6155    1.6895 N   0  0  0  0  0  0  0  0  0  0  0  0
   -5.0648   -0.4067    2.6379 C   0  0  0  0  0  0  0  0  0  0  0  0
   -3.7848   -0.8397    2.4287 N   0  0  0  0  0  0  0  0  0  0  0  0
   -3.5115   -1.4693    1.2602 C   0  0  0  0  0  0  0  0  0  0  0  0
    3.4898   -2.9608    0.2430 H   0  0  0  0  0  0  0  0  0  0  0  0
    3.6055   -0.7787    1.8840 H   0  0  0  0  0  0  0  0  0  0  0  0
   -2.7573    1.7407   -0.5521 H   0  0  0  0  0  0  0  0  0  0  0  0
   -1.6726   -1.0973    1.5650 H   0  0  0  0  0  0  0  0  0  0  0  0
    1.8377   -0.0722   -0.0490 H   0  0  0  0  0  0  0  0  0  0  0  0
    1.3956    1.2627    1.0996 H   0  0  0  0  0  0  0  0  0  0  0  0
    1.2571   -0.3837    2.6350 H   0  0  0  0  0  0  0  0  0  0  0  0
    1.9825   -2.0923    0.4552 H   0  0  0  0  0  0  0  0  0  0  0  0
   -0.1544   -2.5479   -0.2838 H   0  0  0  0  0  0  0  0  0  0  0  0
    0.5916   -4.5495    0.3762 H   0  0  0  0  0  0  0  0  0  0  0  0
   -1.2661   -2.6094    2.5691 H   0  0  0  0  0  0  0  0  0  0  0  0
   -1.9018   -3.0710   -0.9469 H   0  0  0  0  0  0  0  0  0  0  0  0
   -6.5728   -1.9581   -1.3570 H   0  0  0  0  0  0  0  0  0  0  0  0
   -7.7536   -1.1448   -0.2727 H   0  0  0  0  0  0  0  0  0  0  0  0
   -5.3155    0.1016    3.5586 H   0  0  0  0  0  0  0  0  0  0  0  0
  1  2  2  0
  1  3  1  6
  1  4  1  0
  5  6  2  0
  5  7  1  6
  5  8  1  0
  5  9  1  0
  9 10  1  0
 11 10  1  0
 11 12  1  0
 11 13  1  0
  1 14  1  0
 13 14  1  0
 13 15  1  0
 15 16  1  0
 12 17  1  0
 15 17  1  0
 17 18  1  0
 18 19  4  0
 19 20  4  0
 20 21  4  0
 21 22  4  0
 22 23  1  0
 22 24  4  0
 24 25  4  0
 25 26  4  0
 18 27  4  0
 21 27  4  0
 26 27  4  0
  3 28  1  0
  4 29  1  0
  7 30  1  0
  8 31  1  0
 10 32  1  0
 10 33  1  0
 11 34  1  1
 13 35  1  6
 15 36  1  6
 16 37  1  0
 17 38  1  1
 19 39  1  0
 23 40  1  0
 23 41  1  0
 25 42  1  0
M  CHG  1  18   1
M  END
