7WUX_6OI_D_401
     RDKit          3D

 17 16  0  0  0  0  0  0  0  0999 V2000
   26.6319   -9.4370  -23.1683 N   0  0  0  0  0  0  0  0  0  0  0  0
   25.3059  -11.9361  -22.7877 C   0  0  0  0  0  0  0  0  0  0  0  0
   24.4567  -13.1912  -22.5985 C   0  0  1  0  0  0  0  0  0  0  0  0
   24.8809  -14.0830  -21.4207 C   0  0  2  0  0  0  0  0  0  0  0  0
   24.1079  -15.3899  -21.3262 C   0  0  0  0  0  0  0  0  0  0  0  0
   25.8850   -9.9558  -24.3491 C   0  0  2  0  0  0  0  0  0  0  0  0
   25.2138   -8.7847  -25.0786 C   0  0  0  0  0  0  0  0  0  0  0  0
   24.4191   -8.0788  -24.4211 O   0  0  0  0  0  0  0  0  0  0  0  0
   25.5239   -8.6067  -26.2721 O   0  0  0  0  0  0  0  0  0  0  0  0
   24.8700  -11.0293  -23.9315 C   0  0  0  0  0  0  0  0  0  0  0  0
   23.1039  -12.7918  -22.4112 O   0  0  0  0  0  0  0  0  0  0  0  0
   24.7287  -13.3456  -20.1265 N   0  0  0  0  0  0  0  0  0  0  0  0
   24.2317  -16.1711  -22.5631 O   0  0  0  0  0  0  0  0  0  0  0  0
   24.7449  -17.6963  -22.4584 S   0  0  1  0  0  0  0  0  0  0  0  0
   26.1688  -17.5789  -22.7162 O   0  0  0  0  0  0  0  0  0  0  0  0
   24.4436  -18.1678  -21.1237 O   0  0  0  0  0  0  0  0  0  0  0  0
   24.0345  -18.4242  -23.4838 O   0  0  0  0  0  0  0  0  0  0  0  0
  2  3  1  0
  3  4  1  0
  4  5  1  0
  6  1  1  1
  6  7  1  0
  7  8  2  0
  7  9  1  0
  2 10  1  0
  6 10  1  0
  3 11  1  1
  4 12  1  1
  5 13  1  0
 13 14  1  0
 14 15  2  0
 14 16  2  0
 14 17  1  6
M  END
