8EAB_VN2_B_302
     RDKit          3D

 70 74  0  0  0  0  0  0  0  0999 V2000
   -3.9163    5.6976    0.6246 C   0  0  0  0  0  0  0  0  0  0  0  0
   -2.7327    5.4079    1.3074 C   0  0  0  0  0  0  0  0  0  0  0  0
   -1.9516    4.3089    0.9155 C   0  0  0  0  0  0  0  0  0  0  0  0
   -0.6558    4.0599    1.5954 C   0  0  0  0  0  0  0  0  0  0  0  0
    0.5199    3.8797    0.8472 C   0  0  0  0  0  0  0  0  0  0  0  0
    1.7333    3.6095    1.4865 C   0  0  0  0  0  0  0  0  0  0  0  0
    1.8002    3.5476    2.8894 C   0  0  0  0  0  0  0  0  0  0  0  0
    0.6230    3.7247    3.6359 C   0  0  0  0  0  0  0  0  0  0  0  0
   -0.5912    3.9898    2.9964 C   0  0  0  0  0  0  0  0  0  0  0  0
    0.9403   -1.7098    0.9768 C   0  0  0  0  0  0  0  0  0  0  0  0
    3.0937    3.1966    3.5823 C   0  0  0  0  0  0  0  0  0  0  0  0
   -0.4673   -0.2709   -1.4274 C   0  0  0  0  0  0  0  0  0  0  0  0
    0.4712   -0.0032   -2.4370 C   0  0  0  0  0  0  0  0  0  0  0  0
    0.2865   -0.5126   -3.7237 C   0  0  0  0  0  0  0  0  0  0  0  0
   -0.8290   -1.3011   -4.0148 C   0  0  0  0  0  0  0  0  0  0  0  0
   -1.7633   -1.6083   -3.0102 C   0  0  0  0  0  0  0  0  0  0  0  0
   -1.5883   -1.0661   -1.7246 C   0  0  0  0  0  0  0  0  0  0  0  0
   -2.9823   -2.4382   -3.3238 C   0  0  0  0  0  0  0  0  0  0  0  0
    0.8862   -2.9653    1.7547 C   0  0  0  0  0  0  0  0  0  0  0  0
    0.4243   -2.9343    3.0797 C   0  0  0  0  0  0  0  0  0  0  0  0
    0.8795   -5.2480    3.3499 C   0  0  0  0  0  0  0  0  0  0  0  0
    1.3349   -5.3368    2.0339 C   0  0  0  0  0  0  0  0  0  0  0  0
    1.3306   -4.1967    1.2162 C   0  0  0  0  0  0  0  0  0  0  0  0
   -0.2607    0.2754   -0.0317 C   0  0  1  0  0  0  0  0  0  0  0  0
    1.7241   -4.3307   -0.2063 C   0  0  0  0  0  0  0  0  0  0  0  0
    2.9813   -4.8492   -0.5508 C   0  0  0  0  0  0  0  0  0  0  0  0
    3.3541   -4.9639   -1.8941 C   0  0  0  0  0  0  0  0  0  0  0  0
    2.4784   -4.5539   -2.9150 C   0  0  0  0  0  0  0  0  0  0  0  0
    1.2024   -4.0802   -2.5672 C   0  0  0  0  0  0  0  0  0  0  0  0
    0.8316   -3.9612   -1.2255 C   0  0  0  0  0  0  0  0  0  0  0  0
    2.8623   -4.7132   -4.3647 C   0  0  0  0  0  0  0  0  0  0  0  0
   -1.3415    1.2671    0.3346 C   0  0  0  0  0  0  0  0  0  0  0  0
   -2.4024    3.4974   -0.1533 C   0  0  0  0  0  0  0  0  0  0  0  0
   -3.5830    3.8474   -0.8222 C   0  0  0  0  0  0  0  0  0  0  0  0
    3.1565    3.7963    4.8289 F   0  0  0  0  0  0  0  0  0  0  0  0
    3.1688    1.8246    3.7384 F   0  0  0  0  0  0  0  0  0  0  0  0
    4.1816    3.6270    2.8400 F   0  0  0  0  0  0  0  0  0  0  0  0
   -2.7336   -3.3010   -4.3784 F   0  0  0  0  0  0  0  0  0  0  0  0
   -4.0289   -1.6008   -3.6644 F   0  0  0  0  0  0  0  0  0  0  0  0
   -3.3486   -3.1952   -2.2235 F   0  0  0  0  0  0  0  0  0  0  0  0
    4.2318   -4.5904   -4.5237 F   0  0  0  0  0  0  0  0  0  0  0  0
    2.4663   -5.9628   -4.8050 F   0  0  0  0  0  0  0  0  0  0  0  0
    2.2487   -3.7459   -5.1431 F   0  0  0  0  0  0  0  0  0  0  0  0
   -4.3091    4.9232   -0.4198 N   0  0  0  0  0  0  0  0  0  0  0  0
   -0.1991   -0.8389    0.9225 N   0  0  0  0  0  0  0  0  0  0  0  0
    0.4339   -4.0619    3.8384 N   0  0  0  0  0  0  0  0  0  0  0  0
   -1.6843    2.3281   -0.5731 N   0  0  0  0  0  0  0  0  0  0  0  0
    1.9883   -1.4210    0.3355 O   0  0  0  0  0  0  0  0  0  0  0  0
   -1.8961    1.2092    1.4685 O   0  0  0  0  0  0  0  0  0  0  0  0
   -4.5179    6.5477    0.9179 H   0  0  0  0  0  0  0  0  0  0  0  0
   -2.4147    6.0515    2.1187 H   0  0  0  0  0  0  0  0  0  0  0  0
    0.4959    3.9381   -0.2339 H   0  0  0  0  0  0  0  0  0  0  0  0
    2.6180    3.4439    0.8832 H   0  0  0  0  0  0  0  0  0  0  0  0
    0.6402    3.6491    4.7159 H   0  0  0  0  0  0  0  0  0  0  0  0
   -1.4859    4.1153    3.5946 H   0  0  0  0  0  0  0  0  0  0  0  0
    1.3433    0.6048   -2.2315 H   0  0  0  0  0  0  0  0  0  0  0  0
    1.0102   -0.2947   -4.4985 H   0  0  0  0  0  0  0  0  0  0  0  0
   -0.9560   -1.6776   -5.0226 H   0  0  0  0  0  0  0  0  0  0  0  0
   -2.3181   -1.2666   -0.9498 H   0  0  0  0  0  0  0  0  0  0  0  0
    0.0784   -2.0067    3.5182 H   0  0  0  0  0  0  0  0  0  0  0  0
    0.8728   -6.1264    3.9821 H   0  0  0  0  0  0  0  0  0  0  0  0
    1.6663   -6.2931    1.6480 H   0  0  0  0  0  0  0  0  0  0  0  0
    0.6988    0.8365    0.0232 H   0  0  0  0  0  0  0  0  0  0  0  0
    3.6779   -5.1545    0.2208 H   0  0  0  0  0  0  0  0  0  0  0  0
    4.3280   -5.3718   -2.1344 H   0  0  0  0  0  0  0  0  0  0  0  0
    0.4908   -3.8041   -3.3334 H   0  0  0  0  0  0  0  0  0  0  0  0
   -0.1552   -3.5889   -0.9810 H   0  0  0  0  0  0  0  0  0  0  0  0
   -3.9373    3.2463   -1.6496 H   0  0  0  0  0  0  0  0  0  0  0  0
   -1.0771   -1.1549    1.3942 H   0  0  0  0  0  0  0  0  0  0  0  0
   -1.4908    2.2129   -1.5921 H   0  0  0  0  0  0  0  0  0  0  0  0
  1  2  2  0
  2  3  1  0
  3  4  1  0
  4  5  2  0
  5  6  1  0
  6  7  2  0
  7  8  1  0
  8  9  2  0
  4  9  1  0
  7 11  1  0
 12 13  2  0
 13 14  1  0
 14 15  2  0
 15 16  1  0
 16 17  2  0
 12 17  1  0
 16 18  1  0
 10 19  1  0
 19 20  2  0
 21 22  1  0
 19 23  1  0
 22 23  2  0
 12 24  1  0
 23 25  1  0
 25 26  2  0
 26 27  1  0
 27 28  2  0
 28 29  1  0
 29 30  2  0
 25 30  1  0
 28 31  1  0
 24 32  1  0
  3 33  2  0
 33 34  1  0
 11 35  1  0
 11 36  1  0
 11 37  1  0
 18 38  1  0
 18 39  1  0
 18 40  1  0
 31 41  1  0
 31 42  1  0
 31 43  1  0
  1 44  1  0
 34 44  2  0
 24 45  1  0
 10 45  1  0
 20 46  1  0
 21 46  2  0
 33 47  1  0
 32 47  1  0
 10 48  2  0
 32 49  2  0
  1 50  1  0
  2 51  1  0
  5 52  1  0
  6 53  1  0
  8 54  1  0
  9 55  1  0
 13 56  1  0
 14 57  1  0
 15 58  1  0
 17 59  1  0
 20 60  1  0
 21 61  1  0
 22 62  1  0
 24 63  1  6
 26 64  1  0
 27 65  1  0
 29 66  1  0
 30 67  1  0
 34 68  1  0
 45 69  1  0
 47 70  1  0
M  END
