8EAB_VN2_B_302
     RDKit          3D

 49 53  0  0  0  0  0  0  0  0999 V2000
   13.2430  -19.3310   21.2220 C   0  0  0  0  0  0  0  0  0  0  0  0
   12.8380  -18.1320   20.6510 C   0  0  0  0  0  0  0  0  0  0  0  0
   11.4860  -17.9310   20.3840 C   0  0  0  0  0  0  0  0  0  0  0  0
   11.1000  -16.6740   19.7610 C   0  0  0  0  0  0  0  0  0  0  0  0
   11.5950  -15.4650   20.2560 C   0  0  0  0  0  0  0  0  0  0  0  0
   11.2450  -14.2560   19.6560 C   0  0  0  0  0  0  0  0  0  0  0  0
   10.3950  -14.2420   18.5500 C   0  0  0  0  0  0  0  0  0  0  0  0
    9.9040  -15.4510   18.0530 C   0  0  0  0  0  0  0  0  0  0  0  0
   10.2520  -16.6610   18.6530 C   0  0  0  0  0  0  0  0  0  0  0  0
    5.0420  -18.9290   21.7990 C   0  0  0  0  0  0  0  0  0  0  0  0
   10.0270  -12.9590   17.8960 C   0  0  0  0  0  0  0  0  0  0  0  0
    6.6900  -16.9900   20.0070 C   0  0  0  0  0  0  0  0  0  0  0  0
    6.5770  -15.6860   20.5080 C   0  0  0  0  0  0  0  0  0  0  0  0
    6.2300  -14.6230   19.6710 C   0  0  0  0  0  0  0  0  0  0  0  0
    5.9930  -14.8540   18.3150 C   0  0  0  0  0  0  0  0  0  0  0  0
    6.1040  -16.1480   17.8030 C   0  0  0  0  0  0  0  0  0  0  0  0
    6.4480  -17.2040   18.6480 C   0  0  0  0  0  0  0  0  0  0  0  0
    5.8610  -16.4390   16.3670 C   0  0  0  0  0  0  0  0  0  0  0  0
    4.0050  -18.8760   22.8330 C   0  0  0  0  0  0  0  0  0  0  0  0
    4.3490  -19.0640   24.1570 C   0  0  0  0  0  0  0  0  0  0  0  0
    2.1520  -18.8760   24.8090 C   0  0  0  0  0  0  0  0  0  0  0  0
    1.7180  -18.6760   23.5080 C   0  0  0  0  0  0  0  0  0  0  0  0
    2.6670  -18.6770   22.4930 C   0  0  0  0  0  0  0  0  0  0  0  0
    7.0680  -18.1660   20.8860 C   0  0  1  0  0  0  0  0  0  0  0  0
    2.2200  -18.4410   21.1380 C   0  0  0  0  0  0  0  0  0  0  0  0
    1.2800  -19.2860   20.5460 C   0  0  0  0  0  0  0  0  0  0  0  0
    0.8550  -19.0470   19.2380 C   0  0  0  0  0  0  0  0  0  0  0  0
    1.3810  -17.9720   18.5240 C   0  0  0  0  0  0  0  0  0  0  0  0
    2.3210  -17.1300   19.1160 C   0  0  0  0  0  0  0  0  0  0  0  0
    2.7370  -17.3610   20.4250 C   0  0  0  0  0  0  0  0  0  0  0  0
    0.9360  -17.6970   17.1360 C   0  0  0  0  0  0  0  0  0  0  0  0
    8.4920  -18.1250   21.3420 C   0  0  0  0  0  0  0  0  0  0  0  0
   10.6130  -18.9740   20.7020 C   0  0  0  0  0  0  0  0  0  0  0  0
   11.1060  -20.1450   21.2420 C   0  0  0  0  0  0  0  0  0  0  0  0
    9.4350  -12.0630   18.7270 F   0  0  0  0  0  0  0  0  0  0  0  0
   11.1350  -12.3400   17.3920 F   0  0  0  0  0  0  0  0  0  0  0  0
    9.1740  -13.1300   16.8460 F   0  0  0  0  0  0  0  0  0  0  0  0
    5.1440  -15.4770   15.7350 F   0  0  0  0  0  0  0  0  0  0  0  0
    7.0130  -16.5660   15.6610 F   0  0  0  0  0  0  0  0  0  0  0  0
    5.1860  -17.6030   16.1750 F   0  0  0  0  0  0  0  0  0  0  0  0
    0.9810  -18.7870   16.3300 F   0  0  0  0  0  0  0  0  0  0  0  0
   -0.3610  -17.2900   17.1390 F   0  0  0  0  0  0  0  0  0  0  0  0
    1.6540  -16.6990   16.5410 F   0  0  0  0  0  0  0  0  0  0  0  0
   12.4080  -20.3540   21.5170 N   0  0  0  0  0  0  0  0  0  0  0  0
    6.2410  -18.3450   22.0450 N   0  0  0  0  0  0  0  0  0  0  0  0
    3.4470  -19.0590   25.1610 N   0  0  0  0  0  0  0  0  0  0  0  0
    9.2410  -18.9680   20.5370 N   0  0  0  0  0  0  0  0  0  0  0  0
    4.7510  -19.4490   20.7370 O   0  0  0  0  0  0  0  0  0  0  0  0
    8.8850  -17.2790   22.1340 O   0  0  0  0  0  0  0  0  0  0  0  0
  1  2  2  0
  2  3  1  0
  3  4  1  0
  4  5  2  0
  5  6  1  0
  6  7  2  0
  7  8  1  0
  8  9  2  0
  4  9  1  0
  7 11  1  0
 12 13  2  0
 13 14  1  0
 14 15  2  0
 15 16  1  0
 16 17  2  0
 12 17  1  0
 16 18  1  0
 10 19  1  0
 19 20  2  0
 21 22  1  0
 19 23  1  0
 22 23  2  0
 12 24  1  0
 23 25  1  0
 25 26  2  0
 26 27  1  0
 27 28  2  0
 28 29  1  0
 29 30  2  0
 25 30  1  0
 28 31  1  0
 24 32  1  0
  3 33  2  0
 33 34  1  0
 11 35  1  0
 11 36  1  0
 11 37  1  0
 18 38  1  0
 18 39  1  0
 18 40  1  0
 31 41  1  0
 31 42  1  0
 31 43  1  0
  1 44  1  0
 34 44  2  0
 24 45  1  1
 10 45  1  0
 20 46  1  0
 21 46  2  0
 33 47  1  0
 32 47  1  0
 10 48  2  0
 32 49  2  0
M  END
$$$$
