8G6P_API_A_809
     RDKit          3D

 27 26  0  0  0  0  0  0  0  0999 V2000
  -30.3864    6.3567   -4.9085 C   0  0  0  0  0  0  0  0  0  0  0  0
  -30.8116    7.8143   -5.0671 C   0  0  2  0  0  0  0  0  0  0  0  0
  -29.7345    8.6388   -5.7894 C   0  0  0  0  0  0  0  0  0  0  0  0
  -28.5946    9.0399   -4.8418 C   0  0  0  0  0  0  0  0  0  0  0  0
  -28.1158    7.7907   -4.0909 C   0  0  0  0  0  0  0  0  0  0  0  0
  -28.5240    6.4982   -4.8020 C   0  0  2  0  0  0  0  0  0  0  0  0
  -29.9370    6.1333   -4.3761 C   0  0  0  0  0  0  0  0  0  0  0  0
  -30.4943    5.5442   -5.8640 O   0  0  0  0  0  0  0  0  0  0  0  0
  -29.9076    5.9671   -3.8152 O   0  0  0  0  0  0  0  0  0  0  0  0
  -30.1490    5.7603   -3.1917 O   0  0  0  0  0  0  0  0  0  0  0  0
  -30.8720    6.1999   -5.2097 O   0  0  0  0  0  0  0  0  0  0  0  0
  -31.0605    8.3538   -3.7405 N   0  0  0  0  0  0  0  0  0  0  0  0
  -27.6140    5.4046   -4.4627 N   0  0  0  0  0  0  0  0  0  0  0  0
  -31.6970    7.8659   -5.6658 H   0  0  0  0  0  0  0  0  0  0  0  0
  -30.1841    9.5253   -6.1855 H   0  0  0  0  0  0  0  0  0  0  0  0
  -29.3216    8.0358   -6.5708 H   0  0  0  0  0  0  0  0  0  0  0  0
  -28.9481    9.7675   -4.1414 H   0  0  0  0  0  0  0  0  0  0  0  0
  -27.7860    9.4605   -5.4022 H   0  0  0  0  0  0  0  0  0  0  0  0
  -28.5421    7.7938   -3.1094 H   0  0  0  0  0  0  0  0  0  0  0  0
  -27.0470    7.8206   -4.0508 H   0  0  0  0  0  0  0  0  0  0  0  0
  -28.4802    6.6533   -5.8598 H   0  0  0  0  0  0  0  0  0  0  0  0
  -29.8244    6.5667   -3.1000 H   0  0  0  0  0  0  0  0  0  0  0  0
  -30.6984    6.4792   -6.0871 H   0  0  0  0  0  0  0  0  0  0  0  0
  -30.2072    8.2966   -3.1846 H   0  0  0  0  0  0  0  0  0  0  0  0
  -31.7983    7.8148   -3.2872 H   0  0  0  0  0  0  0  0  0  0  0  0
  -27.6405    5.2399   -3.4564 H   0  0  0  0  0  0  0  0  0  0  0  0
  -26.6648    5.6532   -4.7415 H   0  0  0  0  0  0  0  0  0  0  0  0
  1  2  1  0
  2  3  1  0
  3  4  1  0
  4  5  1  0
  5  6  1  0
  6  7  1  0
  1  8  2  0
  1  9  1  0
  7 10  2  0
  7 11  1  0
  2 12  1  0
  6 13  1  0
  2 14  1  6
  3 15  1  0
  3 16  1  0
  4 17  1  0
  4 18  1  0
  5 19  1  0
  5 20  1  0
  6 21  1  6
  9 22  1  0
 11 23  1  0
 12 24  1  0
 12 25  1  0
 13 26  1  0
 13 27  1  0
M  END
