7RH3_59O_A_302
     RDKit          3D

 34 36  0  0  0  0  0  0  0  0999 V2000
   10.7330   -9.0150    2.0130 C   0  0  0  0  0  0  0  0  0  0  0  0
   15.3930   -8.4370   -1.3450 C   0  0  0  0  0  0  0  0  0  0  0  0
   21.9620   -5.5320   -0.6960 O   0  0  0  0  0  0  0  0  0  0  0  0
   20.6070   -5.6810   -0.2910 C   0  0  0  0  0  0  0  0  0  0  0  0
   21.9430   -9.9570   -2.3360 C   0  0  0  0  0  0  0  0  0  0  0  0
   18.4080   -6.7900   -0.7010 C   0  0  2  0  0  0  0  0  0  0  0  0
   17.6930   -7.8740   -1.4440 C   0  0  1  0  0  0  0  0  0  0  0  0
   19.9080   -8.8690   -1.9030 C   0  0  1  0  0  0  0  0  0  0  0  0
   18.4740   -9.1850   -1.5780 C   0  0  1  0  0  0  0  0  0  0  0  0
   19.8540   -6.6700   -1.1480 C   0  0  2  0  0  0  0  0  0  0  0  0
   20.5160   -7.9370   -0.9960 O   0  0  0  0  0  0  0  0  0  0  0  0
   20.6200  -10.0760   -1.8520 O   0  0  0  0  0  0  0  0  0  0  0  0
   18.4920   -9.8900   -0.3030 O   0  0  0  0  0  0  0  0  0  0  0  0
   18.2690  -11.1960   -0.3310 C   0  0  0  0  0  0  0  0  0  0  0  0
   16.4580   -8.0280   -0.6980 O   0  0  0  0  0  0  0  0  0  0  0  0
   18.3310   -7.0740    0.7000 O   0  0  0  0  0  0  0  0  0  0  0  0
   15.4170   -8.6850   -2.5030 O   0  0  0  0  0  0  0  0  0  0  0  0
   17.9460  -11.7960   -1.3490 O   0  0  0  0  0  0  0  0  0  0  0  0
   18.6300  -11.8790    0.9520 C   0  0  0  0  0  0  0  0  0  0  0  0
   14.1900   -8.5920   -0.4690 C   0  0  0  0  0  0  0  0  0  0  0  0
   12.9700   -9.0000   -1.0130 C   0  0  0  0  0  0  0  0  0  0  0  0
   14.2670   -8.3620    0.9010 C   0  0  0  0  0  0  0  0  0  0  0  0
   11.8710   -9.1570   -0.1930 C   0  0  0  0  0  0  0  0  0  0  0  0
   13.1450   -8.5170    1.6800 C   0  0  0  0  0  0  0  0  0  0  0  0
   11.9520   -8.9120    1.1620 C   0  0  0  0  0  0  0  0  0  0  0  0
   19.8220  -12.6020    0.9630 C   0  0  0  0  0  0  0  0  0  0  0  0
   17.8390  -11.9340    2.0990 C   0  0  0  0  0  0  0  0  0  0  0  0
   20.1920  -13.3600    2.0670 C   0  0  0  0  0  0  0  0  0  0  0  0
   18.1640  -12.6930    3.1950 C   0  0  0  0  0  0  0  0  0  0  0  0
   16.5710  -11.1940    2.1390 N   0  0  0  0  0  0  0  0  0  0  0  0
   19.3550  -13.3950    3.1590 C   0  0  0  0  0  0  0  0  0  0  0  0
   19.7310  -14.3770    4.4930 Cl  0  0  0  0  0  0  0  0  0  0  0  0
   16.0300  -10.9630    1.0330 O   0  0  0  0  0  0  0  0  0  0  0  0
   16.0420  -10.9150    3.2270 O   0  0  0  0  0  0  0  0  0  0  0  0
  3  4  1  0
  6  7  1  0
  8  9  1  0
  7  9  1  0
  6 10  1  0
 10  4  1  1
  8 11  1  0
 10 11  1  0
  5 12  1  0
  8 12  1  1
  9 13  1  1
 13 14  1  0
  2 15  1  0
  7 15  1  1
  6 16  1  1
  2 17  2  0
 14 18  2  0
 14 19  1  0
  2 20  1  0
 20 21  2  0
 20 22  1  0
 21 23  1  0
 22 24  2  0
 23 25  2  0
  1 25  1  0
 24 25  1  0
 19 26  2  0
 19 27  1  0
 26 28  1  0
 27 29  2  0
 27 30  1  0
 28 31  2  0
 29 31  1  0
 31 32  1  0
 30 33  2  0
 30 34  1  0
M  CHG  2  30   1  34  -1
M  END
$$$$
