7NUT_GLP_B_501
     RDKit          3D

 30 30  0  0  0  0  0  0  0  0999 V2000
   -4.6832  -16.7511  -33.1480 C   0  0  1  0  0  0  0  0  0  0  0  0
   -4.5735  -16.6496  -31.6130 C   0  0  1  0  0  0  0  0  0  0  0  0
   -5.4396  -17.7227  -30.9096 C   0  0  2  0  0  0  0  0  0  0  0  0
   -6.5450  -18.2961  -31.8291 C   0  0  1  0  0  0  0  0  0  0  0  0
   -7.0192  -17.2903  -32.9232 C   0  0  1  0  0  0  0  0  0  0  0  0
   -8.0896  -16.3213  -32.3953 C   0  0  1  0  0  0  0  0  0  0  0  0
   -4.1968  -17.9778  -33.6325 O   0  0  0  0  0  0  0  0  0  0  0  0
   -3.1745  -16.7660  -31.1919 N   0  0  0  0  0  0  0  0  0  0  0  0
   -6.0327  -17.1768  -29.7580 O   0  0  0  0  0  0  0  0  0  0  0  0
   -6.0887  -19.4688  -32.4584 O   0  0  0  0  0  0  0  0  0  0  0  0
   -6.0091  -16.5405  -33.5989 O   0  0  0  0  0  0  0  0  0  0  0  0
   -8.6008  -15.5422  -33.4504 O   0  0  0  0  0  0  0  0  0  0  0  0
   -7.4192  -14.3998  -33.9048 P   0  0  1  0  0  5  0  0  0  0  0  0
   -6.1256  -15.1037  -34.2483 O   0  0  0  0  0  0  0  0  0  0  0  0
   -7.9645  -13.5590  -35.2676 O   0  0  0  0  0  0  0  0  0  0  0  0
   -7.1458  -13.2999  -32.6470 O   0  0  0  0  0  0  0  0  0  0  0  0
   -4.0721  -15.9276  -33.5850 H   0  0  0  0  0  0  0  0  0  0  0  0
   -4.9423  -15.6379  -31.3263 H   0  0  0  0  0  0  0  0  0  0  0  0
   -4.7873  -18.5746  -30.5997 H   0  0  0  0  0  0  0  0  0  0  0  0
   -7.4269  -18.5713  -31.2016 H   0  0  0  0  0  0  0  0  0  0  0  0
   -7.5339  -17.8972  -33.7011 H   0  0  0  0  0  0  0  0  0  0  0  0
   -8.9031  -16.9296  -31.9385 H   0  0  0  0  0  0  0  0  0  0  0  0
   -7.6377  -15.6823  -31.6021 H   0  0  0  0  0  0  0  0  0  0  0  0
   -3.2750  -18.0859  -33.2802 H   0  0  0  0  0  0  0  0  0  0  0  0
   -2.8725  -15.8494  -30.7882 H   0  0  0  0  0  0  0  0  0  0  0  0
   -3.1228  -17.4545  -30.4061 H   0  0  0  0  0  0  0  0  0  0  0  0
   -5.2980  -16.8187  -29.1944 H   0  0  0  0  0  0  0  0  0  0  0  0
   -6.7565  -20.1802  -32.2727 H   0  0  0  0  0  0  0  0  0  0  0  0
   -8.0881  -12.6273  -34.9555 H   0  0  0  0  0  0  0  0  0  0  0  0
   -6.1807  -13.3868  -32.4418 H   0  0  0  0  0  0  0  0  0  0  0  0
  1  2  1  0
  2  3  1  0
  3  4  1  0
  4  5  1  0
  5  6  1  0
  1  7  1  0
  2  8  1  0
  3  9  1  0
  4 10  1  0
  1 11  1  0
  5 11  1  0
  6 12  1  0
 13 12  1  1
 13 14  2  0
 13 15  1  0
 13 16  1  0
  1 17  1  6
  2 18  1  1
  3 19  1  1
  4 20  1  1
  5 21  1  6
  6 22  1  1
  6 23  1  0
  7 24  1  0
  8 25  1  0
  8 26  1  0
  9 27  1  0
 10 28  1  0
 15 29  1  0
 16 30  1  0
M  END
