6X8D_ARA_A_207
     RDKit          3D

 10 10  0  0  0  0  0  0  0  0999 V2000
   23.3414   -2.0383   72.3110 C   0  0  2  0  0  0  0  0  0  0  0  0
   23.4686   -0.7183   71.5953 C   0  0  1  0  0  0  0  0  0  0  0  0
   23.8243    0.3820   72.5140 C   0  0  2  0  0  0  0  0  0  0  0  0
   22.8379    0.4455   73.6470 C   0  0  2  0  0  0  0  0  0  0  0  0
   22.6791   -0.9200   74.3144 C   0  0  0  0  0  0  0  0  0  0  0  0
   22.9028   -2.9869   71.4458 O   0  0  0  0  0  0  0  0  0  0  0  0
   24.4057   -0.8584   70.5350 O   0  0  0  0  0  0  0  0  0  0  0  0
   23.8767    1.6559   71.7836 O   0  0  0  0  0  0  0  0  0  0  0  0
   21.5952    0.9834   73.1940 O   0  0  0  0  0  0  0  0  0  0  0  0
   22.3147   -1.9273   73.3497 O   0  0  0  0  0  0  0  0  0  0  0  0
  1  2  1  0
  2  3  1  0
  3  4  1  0
  4  5  1  0
  1  6  1  6
  2  7  1  6
  3  8  1  6
  4  9  1  6
  1 10  1  0
  5 10  1  0
M  END
