8AIE_M7L_B_301
     RDKit          3D

 39 39  0  0  0  0  0  0  0  0999 V2000
    6.8599    2.7207   11.0800 C   0  0  0  0  0  0  0  0  0  0  0  0
    8.4087    3.9459   12.3954 C   0  0  0  0  0  0  0  0  0  0  0  0
    6.7090    1.7511   12.0822 C   0  0  0  0  0  0  0  0  0  0  0  0
    7.4800    0.7683   14.3091 C   0  0  1  0  0  0  0  0  0  0  0  0
    7.5035    1.8543   13.2570 C   0  0  0  0  0  0  0  0  0  0  0  0
    8.3064    3.0101   13.4371 C   0  0  0  0  0  0  0  0  0  0  0  0
    9.2741    5.1608   12.5367 C   0  0  1  0  0  0  0  0  0  0  0  0
    7.6937    3.7737   11.2555 N   0  0  0  0  0  0  0  0  0  0  0  0
    8.9936    3.2661   14.6290 O   0  0  0  0  0  0  0  0  0  0  0  0
    6.1251    0.6401   14.8393 N   0  0  0  0  0  0  0  0  0  0  0  0
    5.7028    0.6384   11.8465 C   0  0  1  0  0  0  0  0  0  0  0  0
    4.4420    1.1625   11.4844 O   0  0  0  0  0  0  0  0  0  0  0  0
    3.3610    1.0032   12.7986 P   0  0  2  0  0  5  0  0  0  0  0  0
    3.0798   -0.6348   13.1226 O   0  0  0  0  0  0  0  0  0  0  0  0
    2.0508    1.6639   12.4356 O   0  0  0  0  0  0  0  0  0  0  0  0
    3.9934    1.7522   14.1792 O   0  0  0  0  0  0  0  0  0  0  0  0
    5.7953    0.0908   15.9734 C   0  0  0  0  0  0  0  0  0  0  0  0
    4.3627    0.0095   16.3129 C   0  0  0  0  0  0  0  0  0  0  0  0
    6.8253   -0.5451   16.8763 C   0  0  1  0  0  0  0  0  0  0  0  0
    3.9798    0.1009   17.5103 O   0  0  0  0  0  0  0  0  0  0  0  0
    3.4220   -0.1781   15.3038 O   0  0  0  0  0  0  0  0  0  0  0  0
    6.9195   -1.9130   16.5694 O   0  0  0  0  0  0  0  0  0  0  0  0
    6.3462   -2.5745   17.6071 N   0  0  0  0  0  0  0  0  0  0  0  0
    6.2990    2.6469   10.1569 H   0  0  0  0  0  0  0  0  0  0  0  0
    7.8296   -0.1930   13.8798 H   0  0  0  0  0  0  0  0  0  0  0  0
    8.1940    0.9802   15.1299 H   0  0  0  0  0  0  0  0  0  0  0  0
   10.3341    4.8695   12.6974 H   0  0  0  0  0  0  0  0  0  0  0  0
    9.2102    5.7757   11.6145 H   0  0  0  0  0  0  0  0  0  0  0  0
    8.9392    5.7648   13.4063 H   0  0  0  0  0  0  0  0  0  0  0  0
    9.1862    2.5640   15.3303 H   0  0  0  0  0  0  0  0  0  0  0  0
    6.0746    0.0355   10.9917 H   0  0  0  0  0  0  0  0  0  0  0  0
    5.6140   -0.0813   12.6857 H   0  0  0  0  0  0  0  0  0  0  0  0
    3.8967   -0.9442   13.5889 H   0  0  0  0  0  0  0  0  0  0  0  0
    4.8857    1.3410   14.3047 H   0  0  0  0  0  0  0  0  0  0  0  0
    7.8081   -0.0401   16.7403 H   0  0  0  0  0  0  0  0  0  0  0  0
    6.5315   -0.4089   17.9417 H   0  0  0  0  0  0  0  0  0  0  0  0
    3.6260   -0.7669   14.5052 H   0  0  0  0  0  0  0  0  0  0  0  0
    6.4987   -3.5938   17.4355 H   0  0  0  0  0  0  0  0  0  0  0  0
    6.8974   -2.3310   18.4608 H   0  0  0  0  0  0  0  0  0  0  0  0
  1  3  2  0
  3  5  1  0
  4  5  1  0
  2  6  1  0
  5  6  2  0
  2  7  1  0
  2  8  2  0
  1  8  1  0
  6  9  1  0
  4 10  1  0
  3 11  1  0
 11 12  1  0
 13 12  1  6
 13 14  1  0
 13 15  2  0
 13 16  1  0
 10 17  2  0
 17 18  1  0
 17 19  1  0
 18 20  2  0
 18 21  1  0
 19 22  1  0
 22 23  1  0
  1 24  1  0
  4 25  1  6
  4 26  1  0
  7 27  1  1
  7 28  1  0
  7 29  1  0
  9 30  1  0
 11 31  1  6
 11 32  1  0
 14 33  1  0
 16 34  1  0
 19 35  1  1
 19 36  1  0
 21 37  1  0
 23 38  1  0
 23 39  1  0
M  END
