8EXL_799_A_1101
     RDKit          3D

 34 38  0  0  0  0  0  0  0  0999 V2000
  -22.2310   18.0260   33.0920 C   0  0  0  0  0  0  0  0  0  0  0  0
  -21.1380   17.9820   34.1170 C   0  0  0  0  0  0  0  0  0  0  0  0
  -21.4250   16.8850   35.1440 C   0  0  0  0  0  0  0  0  0  0  0  0
  -21.0450   19.3490   34.8020 C   0  0  0  0  0  0  0  0  0  0  0  0
  -19.6510   16.6840   32.5490 C   0  0  0  0  0  0  0  0  0  0  0  0
  -17.6240   15.8670   31.2280 C   0  0  0  0  0  0  0  0  0  0  0  0
  -14.1230   15.9060   28.1530 C   0  0  0  0  0  0  0  0  0  0  0  0
  -13.4250   14.5850   27.8600 C   0  0  0  0  0  0  0  0  0  0  0  0
  -14.2880   12.4440   26.8860 C   0  0  0  0  0  0  0  0  0  0  0  0
  -16.2540   14.2830   29.3870 C   0  0  0  0  0  0  0  0  0  0  0  0
  -17.5340   13.9390   29.8130 C   0  0  0  0  0  0  0  0  0  0  0  0
  -17.7900    9.7450   27.5070 C   0  0  0  0  0  0  0  0  0  0  0  0
  -19.1010    9.6500   26.7280 C   0  0  0  0  0  0  0  0  0  0  0  0
  -17.6580    8.6530   28.5690 C   0  0  0  0  0  0  0  0  0  0  0  0
  -22.0090   18.5830   31.8770 N   0  0  0  0  0  0  0  0  0  0  0  0
  -23.3080   17.5440   33.3600 O   0  0  0  0  0  0  0  0  0  0  0  0
  -19.8640   17.6660   33.4580 N   0  0  0  0  0  0  0  0  0  0  0  0
  -18.3280   16.7450   32.2030 C   0  0  0  0  0  0  0  0  0  0  0  0
  -17.7430   17.8190   32.9090 C   0  0  0  0  0  0  0  0  0  0  0  0
  -18.6660   18.3600   33.6570 N   0  0  0  0  0  0  0  0  0  0  0  0
  -16.3590   16.2360   30.8140 C   0  0  0  0  0  0  0  0  0  0  0  0
  -15.6660   15.4690   29.9040 C   0  0  0  0  0  0  0  0  0  0  0  0
  -14.4460   15.8860   29.5450 O   0  0  0  0  0  0  0  0  0  0  0  0
  -14.4050   13.5170   27.7200 N   0  0  0  0  0  0  0  0  0  0  0  0
  -15.3940   11.6690   27.0440 C   0  0  0  0  0  0  0  0  0  0  0  0
  -16.1800   12.2700   27.9680 N   0  0  0  0  0  0  0  0  0  0  0  0
  -15.6200   13.3770   28.3940 C   0  0  0  0  0  0  0  0  0  0  0  0
  -18.2190   14.7110   30.7290 C   0  0  0  0  0  0  0  0  0  0  0  0
  -15.6460   10.3870   26.3550 C   0  0  0  0  0  0  0  0  0  0  0  0
  -14.8700    9.8190   25.4530 N   0  0  0  0  0  0  0  0  0  0  0  0
  -15.3890    8.6570   25.0770 C   0  0  0  0  0  0  0  0  0  0  0  0
  -14.8020    7.7060   24.0580 C   0  0  0  0  0  0  0  0  0  0  0  0
  -16.4940    8.4600   25.7390 N   0  0  0  0  0  0  0  0  0  0  0  0
  -16.6760    9.5590   26.5780 N   0  0  0  0  0  0  0  0  0  0  0  0
  1  2  1  0
  2  3  1  0
  2  4  1  0
  7  8  1  0
 10 11  2  0
 12 13  1  0
 12 14  1  0
  1 15  1  0
  1 16  2  0
  5 17  1  0
  2 17  1  0
  6 18  1  0
  5 18  2  0
 18 19  1  0
 19 20  2  0
 17 20  1  0
  6 21  1  0
 10 22  1  0
 21 22  2  0
 22 23  1  0
  7 23  1  0
  9 24  1  0
  8 24  1  0
  9 25  2  0
 25 26  1  0
 26 27  2  0
 24 27  1  0
 10 27  1  0
 11 28  1  0
  6 28  2  0
 25 29  1  0
 29 30  2  0
 30 31  1  0
 31 32  1  0
 31 33  2  0
 33 34  1  0
 12 34  1  0
 29 34  1  0
M  END
$$$$
