8EXL_799_A_1101
     RDKit          3D

 62 66  0  0  0  0  0  0  0  0999 V2000
  -14.4174    7.9774   24.4244 C   0  0  0  0  0  0  0  0  0  0  0  0
  -14.2298    9.4576   24.5688 C   0  0  1  0  0  0  0  0  0  0  0  0
  -12.8239    9.7604   25.0905 C   0  0  0  0  0  0  0  0  0  0  0  0
  -14.4523   10.1210   23.2061 C   0  0  0  0  0  0  0  0  0  0  0  0
  -15.1008   11.1436   26.2282 C   0  0  0  0  0  0  0  0  0  0  0  0
  -16.5531   12.3382   27.9559 C   0  0  0  0  0  0  0  0  0  0  0  0
  -15.6014   16.8204   28.8034 C   0  0  0  0  0  0  0  0  0  0  0  0
  -15.7361   17.3124   30.2379 C   0  0  0  0  0  0  0  0  0  0  0  0
  -17.7191   17.4201   31.7655 C   0  0  0  0  0  0  0  0  0  0  0  0
  -17.1306   14.4547   29.6770 C   0  0  0  0  0  0  0  0  0  0  0  0
  -17.9844   13.3593   29.5795 C   0  0  0  0  0  0  0  0  0  0  0  0
  -20.6539   14.5586   33.4638 C   0  0  2  0  0  0  0  0  0  0  0  0
  -20.3004   14.2731   32.0051 C   0  0  0  0  0  0  0  0  0  0  0  0
  -22.0728   14.1151   33.8214 C   0  0  0  0  0  0  0  0  0  0  0  0
  -15.2678    7.3114   25.2424 N   0  0  0  0  0  0  0  0  0  0  0  0
  -13.7878    7.3848   23.5779 O   0  0  0  0  0  0  0  0  0  0  0  0
  -15.1983    9.9792   25.5421 N   0  0  0  0  0  4  0  0  0  0  0  0
  -16.2164   11.2332   27.0163 C   0  0  0  0  0  0  0  0  0  0  0  0
  -16.9875   10.0678   26.8126 C   0  0  0  0  0  0  0  0  0  0  0  0
  -16.3738    9.3277   25.9296 N   0  0  0  0  0  0  0  0  0  0  0  0
  -15.6946   13.4179   28.0264 C   0  0  0  0  0  0  0  0  0  0  0  0
  -15.9622   14.4744   28.8682 C   0  0  0  0  0  0  0  0  0  0  0  0
  -15.0892   15.4887   28.8852 O   0  0  0  0  0  0  0  0  0  0  0  0
  -16.9472   16.7764   30.8434 N   0  0  0  0  0  4  0  0  0  0  0  0
  -18.7514   16.5982   32.0938 C   0  0  0  0  0  0  0  0  0  0  0  0
  -18.6080   15.4615   31.3725 N   0  0  0  0  0  0  0  0  0  0  0  0
  -17.5400   15.5329   30.6143 C   0  0  0  0  0  0  0  0  0  0  0  0
  -17.7056   12.3027   28.7368 C   0  0  0  0  0  0  0  0  0  0  0  0
  -19.7986   16.8965   33.0918 C   0  0  0  0  0  0  0  0  0  0  0  0
  -20.0753   18.0794   33.6042 N   0  0  0  0  0  0  0  0  0  0  0  0
  -21.0500   17.9685   34.4979 C   0  0  0  0  0  0  0  0  0  0  0  0
  -21.6552   19.0972   35.3023 C   0  0  0  0  0  0  0  0  0  0  0  0
  -21.4014   16.7162   34.5785 N   0  0  0  0  0  0  0  0  0  0  0  0
  -20.6006   16.0029   33.6871 N   0  0  0  0  0  4  0  0  0  0  0  0
  -12.0985    9.3892   24.3970 H   0  0  0  0  0  0  0  0  0  0  0  0
  -12.7042   10.8180   25.2000 H   0  0  0  0  0  0  0  0  0  0  0  0
  -12.6857    9.2858   26.0394 H   0  0  0  0  0  0  0  0  0  0  0  0
  -13.7438    9.7366   22.5023 H   0  0  0  0  0  0  0  0  0  0  0  0
  -15.4443    9.9107   22.8646 H   0  0  0  0  0  0  0  0  0  0  0  0
  -14.3241   11.1792   23.2993 H   0  0  0  0  0  0  0  0  0  0  0  0
  -14.3332   11.8307   26.1681 H   0  0  0  0  0  0  0  0  0  0  0  0
  -16.5559   16.8216   28.3196 H   0  0  0  0  0  0  0  0  0  0  0  0
  -14.9536   17.4530   28.2333 H   0  0  0  0  0  0  0  0  0  0  0  0
  -14.8865   16.9904   30.8030 H   0  0  0  0  0  0  0  0  0  0  0  0
  -15.7909   18.3810   30.2362 H   0  0  0  0  0  0  0  0  0  0  0  0
  -17.5497   18.3641   32.1465 H   0  0  0  0  0  0  0  0  0  0  0  0
  -18.8443   13.3371   30.1497 H   0  0  0  0  0  0  0  0  0  0  0  0
  -19.9544   14.0174   34.0660 H   0  0  0  0  0  0  0  0  0  0  0  0
  -20.9785   14.7973   31.3646 H   0  0  0  0  0  0  0  0  0  0  0  0
  -19.3005   14.6001   31.8098 H   0  0  0  0  0  0  0  0  0  0  0  0
  -20.3746   13.2220   31.8192 H   0  0  0  0  0  0  0  0  0  0  0  0
  -22.7766   14.6535   33.2217 H   0  0  0  0  0  0  0  0  0  0  0  0
  -22.1758   13.0661   33.6368 H   0  0  0  0  0  0  0  0  0  0  0  0
  -22.2590   14.3151   34.8559 H   0  0  0  0  0  0  0  0  0  0  0  0
  -15.7761    7.8016   25.9284 H   0  0  0  0  0  0  0  0  0  0  0  0
  -15.3774    6.3374   25.1507 H   0  0  0  0  0  0  0  0  0  0  0  0
  -17.8794    9.8411   27.2797 H   0  0  0  0  0  0  0  0  0  0  0  0
  -14.8440   13.4330   27.4423 H   0  0  0  0  0  0  0  0  0  0  0  0
  -18.3450   11.4942   28.6857 H   0  0  0  0  0  0  0  0  0  0  0  0
  -21.1804   20.0187   35.0372 H   0  0  0  0  0  0  0  0  0  0  0  0
  -22.7026   19.1626   35.0931 H   0  0  0  0  0  0  0  0  0  0  0  0
  -21.5111   18.9088   36.3457 H   0  0  0  0  0  0  0  0  0  0  0  0
  2  1  1  1
  2  3  1  0
  2  4  1  0
  7  8  1  0
 10 11  4  0
 12 13  1  0
 12 14  1  0
  1 15  1  0
  1 16  2  0
  5 17  4  0
  2 17  1  0
  6 18  1  0
  5 18  4  0
 18 19  4  0
 19 20  4  0
 17 20  4  0
  6 21  4  0
 10 22  4  0
 21 22  4  0
 22 23  1  0
  7 23  1  0
  9 24  4  0
  8 24  1  0
  9 25  4  0
 25 26  4  0
 26 27  4  0
 24 27  4  0
 10 27  1  0
 11 28  4  0
  6 28  4  0
 25 29  1  0
 29 30  4  0
 30 31  4  0
 31 32  1  0
 31 33  4  0
 33 34  4  0
 12 34  1  0
 29 34  4  0
  3 35  1  0
  3 36  1  0
  3 37  1  0
  4 38  1  0
  4 39  1  0
  4 40  1  0
  5 41  1  0
  7 42  1  0
  7 43  1  0
  8 44  1  0
  8 45  1  0
  9 46  1  0
 11 47  1  0
 12 48  1  6
 13 49  1  0
 13 50  1  0
 13 51  1  0
 14 52  1  0
 14 53  1  0
 14 54  1  0
 15 55  1  0
 15 56  1  0
 19 57  1  0
 21 58  1  0
 28 59  1  0
 32 60  1  0
 32 61  1  0
 32 62  1  0
M  CHG  3  17   1  24   1  34   1
M  END
