8G6P_API_A_809
     RDKit          3D

 13 12  0  0  0  0  0  0  0  0999 V2000
  -26.5141   11.9284   -9.4849 C   0  0  0  0  0  0  0  0  0  0  0  0
  -27.6641   11.2098  -10.1861 C   0  0  2  0  0  0  0  0  0  0  0  0
  -27.3966   11.0564  -11.6916 C   0  0  0  0  0  0  0  0  0  0  0  0
  -26.9585   12.3828  -12.3296 C   0  0  0  0  0  0  0  0  0  0  0  0
  -26.5314   12.1150  -13.7786 C   0  0  0  0  0  0  0  0  0  0  0  0
  -25.9616   13.3655  -14.4527 C   0  0  2  0  0  0  0  0  0  0  0  0
  -25.2202   14.1862  -13.4096 C   0  0  0  0  0  0  0  0  0  0  0  0
  -25.3819   11.3879   -9.3806 O   0  0  0  0  0  0  0  0  0  0  0  0
  -26.6957   13.0805   -9.0202 O   0  0  0  0  0  0  0  0  0  0  0  0
  -24.0223   13.9056  -13.1391 O   0  0  0  0  0  0  0  0  0  0  0  0
  -25.8114   15.1259  -12.8259 O   0  0  0  0  0  0  0  0  0  0  0  0
  -28.8758   11.9805   -9.9609 N   0  0  0  0  0  0  0  0  0  0  0  0
  -27.0282   14.1739  -15.0425 N   0  0  0  0  0  0  0  0  0  0  0  0
  1  2  1  0
  2  3  1  0
  3  4  1  0
  4  5  1  0
  5  6  1  0
  6  7  1  0
  1  8  2  0
  1  9  1  0
  7 10  2  0
  7 11  1  0
  2 12  1  6
  6 13  1  1
M  END
