1YGC_905_H_1
     RDKit          3D

 38 40  0  0  0  0  0  0  0  0999 V2000
    4.1701   20.2059   42.3524 O   0  0  0  0  0  0  0  0  0  0  0  0
    3.9221   21.5486   42.5950 C   0  0  0  0  0  0  0  0  0  0  0  0
    3.1727   22.2725   41.6864 C   0  0  0  0  0  0  0  0  0  0  0  0
    2.8757   23.6091   41.8443 C   0  0  0  0  0  0  0  0  0  0  0  0
    2.0889   24.3367   40.8735 N   0  0  0  0  0  0  0  0  0  0  0  0
    1.6200   23.5778   39.7216 C   0  0  1  0  0  0  0  0  0  0  0  0
    0.3287   23.0468   40.1478 C   0  0  0  0  0  0  0  0  0  0  0  0
   -0.1920   23.7195   41.1560 O   0  0  0  0  0  0  0  0  0  0  0  0
   -0.4533   21.9897   39.7205 N   0  0  0  0  0  0  0  0  0  0  0  0
   -1.8574   21.5344   40.6645 S   0  0  2  0  0  0  0  0  0  0  0  0
   -2.8754   20.9048   39.7700 O   0  0  0  0  0  0  0  0  0  0  0  0
   -2.3568   22.7580   41.3379 O   0  0  0  0  0  0  0  0  0  0  0  0
   -1.3368   20.3862   41.8894 C   0  0  0  0  0  0  0  0  0  0  0  0
   -1.8337   20.5850   43.1689 C   0  0  0  0  0  0  0  0  0  0  0  0
   -1.4388   19.6769   44.1560 C   0  0  0  0  0  0  0  0  0  0  0  0
   -0.5878   18.6208   43.8744 C   0  0  0  0  0  0  0  0  0  0  0  0
   -0.0938   18.4265   42.5914 C   0  0  0  0  0  0  0  0  0  0  0  0
    0.7764   17.3385   42.2971 N   0  0  0  0  0  0  0  0  0  0  0  0
   -0.4891   19.3336   41.6105 C   0  0  0  0  0  0  0  0  0  0  0  0
    1.7404   24.3440   38.4880 C   0  0  0  0  0  0  0  0  0  0  0  0
    1.6718   23.7990   37.2215 C   0  0  0  0  0  0  0  0  0  0  0  0
    1.5983   22.4746   37.0234 F   0  0  0  0  0  0  0  0  0  0  0  0
    1.7337   24.5641   36.0445 C   0  0  0  0  0  0  0  0  0  0  0  0
    1.6502   23.8993   34.8553 O   0  0  0  0  0  0  0  0  0  0  0  0
    1.4286   24.5319   33.6299 C   0  0  0  0  0  0  0  0  0  0  0  0
    2.6876   25.1817   33.1558 C   0  0  0  0  0  0  0  0  0  0  0  0
    1.8722   25.9259   36.1014 C   0  0  0  0  0  0  0  0  0  0  0  0
    1.9462   26.5018   37.3464 C   0  0  0  0  0  0  0  0  0  0  0  0
    2.0858   27.8778   37.4679 O   0  0  0  0  0  0  0  0  0  0  0  0
    2.3662   28.5434   38.6718 C   0  0  0  0  0  0  0  0  0  0  0  0
    2.4381   30.0331   38.5807 C   0  0  0  0  0  0  0  0  0  0  0  0
    1.8836   25.7414   38.5197 C   0  0  0  0  0  0  0  0  0  0  0  0
    3.3715   24.2134   42.9825 C   0  0  0  0  0  0  0  0  0  0  0  0
    4.1311   23.5066   43.9178 C   0  0  0  0  0  0  0  0  0  0  0  0
    4.4106   22.1685   43.7286 C   0  0  0  0  0  0  0  0  0  0  0  0
    5.1979   21.3826   44.6693 C   0  0  0  0  0  0  0  0  0  0  0  0
    5.6705   22.0036   45.7192 N   0  0  0  0  0  0  0  0  0  0  0  0
    5.4744   19.9977   44.5054 N   0  0  0  0  0  0  0  0  0  0  0  0
  1  2  1  0
  2  3  2  0
  3  4  1  0
  4  5  1  0
  6  5  1  1
  6  7  1  0
  7  8  2  0
  7  9  1  0
 10  9  1  6
 10 11  2  0
 10 12  2  0
 10 13  1  0
 13 14  2  0
 14 15  1  0
 15 16  2  0
 16 17  1  0
 17 18  1  0
 13 19  1  0
 17 19  2  0
  6 20  1  0
 20 21  2  0
 21 22  1  0
 21 23  1  0
 23 24  1  0
 24 25  1  0
 25 26  1  0
 23 27  2  0
 27 28  1  0
 28 29  1  0
 29 30  1  0
 30 31  1  0
 20 32  1  0
 28 32  2  0
  4 33  2  0
 33 34  1  0
  2 35  1  0
 34 35  2  0
 35 36  1  0
 36 37  2  0
 36 38  1  0
M  END
$$$$
