1YGC_905_H_1
     RDKit          3D

 38 40  0  0  0  0  0  0  0  0999 V2000
   11.7173   38.4814   27.9926 O   0  0  0  0  0  0  0  0  0  0  0  0
   12.2468   38.3695   29.2695 C   0  0  0  0  0  0  0  0  0  0  0  0
   11.5148   38.8310   30.3476 C   0  0  0  0  0  0  0  0  0  0  0  0
   11.9595   38.7611   31.6503 C   0  0  0  0  0  0  0  0  0  0  0  0
   11.1679   39.2541   32.7553 N   0  0  0  0  0  0  0  0  0  0  0  0
    9.8814   39.8474   32.4152 C   0  0  1  0  0  0  0  0  0  0  0  0
    9.0318   39.5337   33.5601 C   0  0  0  0  0  0  0  0  0  0  0  0
    9.6789   38.8955   34.5161 O   0  0  0  0  0  0  0  0  0  0  0  0
    7.6981   39.7604   33.8456 N   0  0  0  0  0  0  0  0  0  0  0  0
    7.0496   39.2050   35.3756 S   0  0  2  0  0  0  0  0  0  0  0  0
    7.5998   37.8510   35.6870 O   0  0  0  0  0  0  0  0  0  0  0  0
    5.5707   39.2163   35.2624 O   0  0  0  0  0  0  0  0  0  0  0  0
    7.5315   40.3529   36.6164 C   0  0  0  0  0  0  0  0  0  0  0  0
    7.9207   39.8146   37.8338 C   0  0  0  0  0  0  0  0  0  0  0  0
    8.3166   40.7108   38.8315 C   0  0  0  0  0  0  0  0  0  0  0  0
    8.3226   42.0796   38.6190 C   0  0  0  0  0  0  0  0  0  0  0  0
    7.9323   42.6128   37.3979 C   0  0  0  0  0  0  0  0  0  0  0  0
    7.9429   44.0190   37.1741 N   0  0  0  0  0  0  0  0  0  0  0  0
    7.5380   41.7168   36.4064 C   0  0  0  0  0  0  0  0  0  0  0  0
   10.0289   41.2205   31.9504 C   0  0  0  0  0  0  0  0  0  0  0  0
    9.5489   41.6917   30.7448 C   0  0  0  0  0  0  0  0  0  0  0  0
    8.9934   40.8764   29.8364 F   0  0  0  0  0  0  0  0  0  0  0  0
    9.6523   43.0337   30.3411 C   0  0  0  0  0  0  0  0  0  0  0  0
    9.1318   43.3677   29.1242 O   0  0  0  0  0  0  0  0  0  0  0  0
    8.5743   44.6160   28.8382 C   0  0  0  0  0  0  0  0  0  0  0  0
    9.6519   45.5854   28.4757 C   0  0  0  0  0  0  0  0  0  0  0  0
   10.2548   43.9628   31.1477 C   0  0  0  0  0  0  0  0  0  0  0  0
   10.7463   43.5279   32.3544 C   0  0  0  0  0  0  0  0  0  0  0  0
   11.3664   44.4235   33.2152 O   0  0  0  0  0  0  0  0  0  0  0  0
   11.3958   44.2900   34.6124 C   0  0  0  0  0  0  0  0  0  0  0  0
   12.1040   45.3812   35.3474 C   0  0  0  0  0  0  0  0  0  0  0  0
   10.6433   42.1919   32.7586 C   0  0  0  0  0  0  0  0  0  0  0  0
   13.2037   38.1930   31.8400 C   0  0  0  0  0  0  0  0  0  0  0  0
   13.9651   37.7180   30.7695 C   0  0  0  0  0  0  0  0  0  0  0  0
   13.4898   37.8038   29.4768 C   0  0  0  0  0  0  0  0  0  0  0  0
   14.2402   37.3262   28.3231 C   0  0  0  0  0  0  0  0  0  0  0  0
   13.7422   37.5773   27.1397 N   0  0  0  0  0  0  0  0  0  0  0  0
   15.4658   36.6119   28.4174 N   0  0  0  0  0  0  0  0  0  0  0  0
  1  2  1  0
  2  3  2  0
  3  4  1  0
  4  5  1  0
  6  5  1  1
  6  7  1  0
  7  8  2  0
  7  9  1  0
 10  9  1  6
 10 11  2  0
 10 12  2  0
 10 13  1  0
 13 14  2  0
 14 15  1  0
 15 16  2  0
 16 17  1  0
 17 18  1  0
 13 19  1  0
 17 19  2  0
  6 20  1  0
 20 21  2  0
 21 22  1  0
 21 23  1  0
 23 24  1  0
 24 25  1  0
 25 26  1  0
 23 27  2  0
 27 28  1  0
 28 29  1  0
 29 30  1  0
 30 31  1  0
 20 32  1  0
 28 32  2  0
  4 33  2  0
 33 34  1  0
  2 35  1  0
 34 35  2  0
 35 36  1  0
 36 37  2  0
 36 38  1  0
M  END
$$$$
