1YGC_905_H_1
     RDKit          3D

 38 40  0  0  0  0  0  0  0  0999 V2000
   17.0753   58.6825   42.9428 O   0  0  0  0  0  0  0  0  0  0  0  0
   17.2958   57.5322   43.6855 C   0  0  0  0  0  0  0  0  0  0  0  0
   18.1182   57.5913   44.7952 C   0  0  0  0  0  0  0  0  0  0  0  0
   18.3939   56.5012   45.5921 C   0  0  0  0  0  0  0  0  0  0  0  0
   19.2597   56.5980   46.7462 N   0  0  0  0  0  0  0  0  0  0  0  0
   19.8849   57.8933   46.9788 C   0  0  1  0  0  0  0  0  0  0  0  0
   20.1353   57.9137   48.4168 C   0  0  0  0  0  0  0  0  0  0  0  0
   20.5150   56.7406   48.8854 O   0  0  0  0  0  0  0  0  0  0  0  0
   20.0525   58.8992   49.3830 N   0  0  0  0  0  0  0  0  0  0  0  0
   20.4747   58.5058   51.0374 S   0  0  2  0  0  0  0  0  0  0  0  0
   21.9190   58.1283   51.1059 O   0  0  0  0  0  0  0  0  0  0  0  0
   19.5706   57.4165   51.4804 O   0  0  0  0  0  0  0  0  0  0  0  0
   20.1745   59.9282   52.0255 C   0  0  0  0  0  0  0  0  0  0  0  0
   21.2488   60.7853   52.2113 C   0  0  0  0  0  0  0  0  0  0  0  0
   21.0282   61.9276   52.9869 C   0  0  0  0  0  0  0  0  0  0  0  0
   19.7910   62.1979   53.5484 C   0  0  0  0  0  0  0  0  0  0  0  0
   18.7190   61.3362   53.3585 C   0  0  0  0  0  0  0  0  0  0  0  0
   17.4443   61.6139   53.9294 N   0  0  0  0  0  0  0  0  0  0  0  0
   18.9427   60.1988   52.5856 C   0  0  0  0  0  0  0  0  0  0  0  0
   20.9617   58.1483   46.0309 C   0  0  0  0  0  0  0  0  0  0  0  0
   21.3048   59.3991   45.5581 C   0  0  0  0  0  0  0  0  0  0  0  0
   20.5850   60.4908   45.8560 F   0  0  0  0  0  0  0  0  0  0  0  0
   22.3838   59.6292   44.6878 C   0  0  0  0  0  0  0  0  0  0  0  0
   22.6165   60.9168   44.2990 O   0  0  0  0  0  0  0  0  0  0  0  0
   23.6650   61.2922   43.4560 C   0  0  0  0  0  0  0  0  0  0  0  0
   23.6713   62.7757   43.2787 C   0  0  0  0  0  0  0  0  0  0  0  0
   23.1659   58.5918   44.2530 C   0  0  0  0  0  0  0  0  0  0  0  0
   22.8512   57.3323   44.7020 C   0  0  0  0  0  0  0  0  0  0  0  0
   23.6083   56.2412   44.2968 O   0  0  0  0  0  0  0  0  0  0  0  0
   23.4283   54.9315   44.7691 C   0  0  0  0  0  0  0  0  0  0  0  0
   24.3283   53.9020   44.1670 C   0  0  0  0  0  0  0  0  0  0  0  0
   21.7776   57.1014   45.5698 C   0  0  0  0  0  0  0  0  0  0  0  0
   17.7958   55.3117   45.2262 C   0  0  0  0  0  0  0  0  0  0  0  0
   16.9600   55.2227   44.1104 C   0  0  0  0  0  0  0  0  0  0  0  0
   16.7052   56.3342   43.3333 C   0  0  0  0  0  0  0  0  0  0  0  0
   15.8435   56.2997   42.1591 C   0  0  0  0  0  0  0  0  0  0  0  0
   16.1256   57.1267   41.1855 N   0  0  0  0  0  0  0  0  0  0  0  0
   14.7292   55.4275   42.0213 N   0  0  0  0  0  0  0  0  0  0  0  0
  1  2  1  0
  2  3  2  0
  3  4  1  0
  4  5  1  0
  6  5  1  6
  6  7  1  0
  7  8  2  0
  7  9  1  0
 10  9  1  6
 10 11  2  0
 10 12  2  0
 10 13  1  0
 13 14  2  0
 14 15  1  0
 15 16  2  0
 16 17  1  0
 17 18  1  0
 13 19  1  0
 17 19  2  0
  6 20  1  0
 20 21  2  0
 21 22  1  0
 21 23  1  0
 23 24  1  0
 24 25  1  0
 25 26  1  0
 23 27  2  0
 27 28  1  0
 28 29  1  0
 29 30  1  0
 30 31  1  0
 20 32  1  0
 28 32  2  0
  4 33  2  0
 33 34  1  0
  2 35  1  0
 34 35  2  0
 35 36  1  0
 36 37  2  0
 36 38  1  0
M  END
$$$$
