1YGC_905_H_1
     RDKit          3D

 38 40  0  0  0  0  0  0  0  0999 V2000
   13.4128   37.7192   32.2186 O   0  0  0  0  0  0  0  0  0  0  0  0
   12.6526   38.5376   31.3966 C   0  0  0  0  0  0  0  0  0  0  0  0
   11.7968   39.4612   31.9673 C   0  0  0  0  0  0  0  0  0  0  0  0
   11.0044   40.3153   31.2309 C   0  0  0  0  0  0  0  0  0  0  0  0
   10.1193   41.2698   31.8604 N   0  0  0  0  0  0  0  0  0  0  0  0
   10.1834   41.3504   33.3137 C   0  0  1  0  0  0  0  0  0  0  0  0
   10.1346   42.7825   33.5925 C   0  0  0  0  0  0  0  0  0  0  0  0
    9.3169   43.4317   32.7863 O   0  0  0  0  0  0  0  0  0  0  0  0
   10.7669   43.5940   34.5161 N   0  0  0  0  0  0  0  0  0  0  0  0
   10.2581   45.2636   34.6706 S   0  0  2  0  0  0  0  0  0  0  0  0
   11.0803   45.9391   35.7198 O   0  0  0  0  0  0  0  0  0  0  0  0
    8.8086   45.2598   34.9852 O   0  0  0  0  0  0  0  0  0  0  0  0
   10.4984   46.0486   33.1164 C   0  0  0  0  0  0  0  0  0  0  0  0
   11.7333   46.6466   32.9143 C   0  0  0  0  0  0  0  0  0  0  0  0
   11.9478   47.2687   31.6806 C   0  0  0  0  0  0  0  0  0  0  0  0
   10.9723   47.2900   30.6973 C   0  0  0  0  0  0  0  0  0  0  0  0
    9.7380   46.6893   30.9052 C   0  0  0  0  0  0  0  0  0  0  0  0
    8.7351   46.7042   29.8944 N   0  0  0  0  0  0  0  0  0  0  0  0
    9.5277   46.0708   32.1358 C   0  0  0  0  0  0  0  0  0  0  0  0
    9.2411   40.4355   33.9447 C   0  0  0  0  0  0  0  0  0  0  0  0
    9.4713   39.7784   35.1368 C   0  0  0  0  0  0  0  0  0  0  0  0
   10.6536   39.8464   35.7661 F   0  0  0  0  0  0  0  0  0  0  0  0
    8.5256   38.9441   35.7567 C   0  0  0  0  0  0  0  0  0  0  0  0
    8.8803   38.3572   36.9369 O   0  0  0  0  0  0  0  0  0  0  0  0
    8.1279   38.4615   38.1090 C   0  0  0  0  0  0  0  0  0  0  0  0
    8.0079   37.1217   38.7594 C   0  0  0  0  0  0  0  0  0  0  0  0
    7.2967   38.7359   35.1881 C   0  0  0  0  0  0  0  0  0  0  0  0
    7.0345   39.3726   33.9996 C   0  0  0  0  0  0  0  0  0  0  0  0
    5.8059   39.2011   33.3760 O   0  0  0  0  0  0  0  0  0  0  0  0
    5.6311   39.0754   31.9887 C   0  0  0  0  0  0  0  0  0  0  0  0
    4.2153   38.9496   31.5283 C   0  0  0  0  0  0  0  0  0  0  0  0
    7.9748   40.2048   33.3813 C   0  0  0  0  0  0  0  0  0  0  0  0
   11.1044   40.2078   29.8579 C   0  0  0  0  0  0  0  0  0  0  0  0
   11.9609   39.2842   29.2540 C   0  0  0  0  0  0  0  0  0  0  0  0
   12.7407   38.4432   30.0213 C   0  0  0  0  0  0  0  0  0  0  0  0
   13.6500   37.4609   29.4462 C   0  0  0  0  0  0  0  0  0  0  0  0
   13.7036   37.3873   28.1412 N   0  0  0  0  0  0  0  0  0  0  0  0
   14.4676   36.5922   30.2196 N   0  0  0  0  0  0  0  0  0  0  0  0
  1  2  1  0
  2  3  2  0
  3  4  1  0
  4  5  1  0
  6  5  1  6
  6  7  1  0
  7  8  2  0
  7  9  1  0
 10  9  1  6
 10 11  2  0
 10 12  2  0
 10 13  1  0
 13 14  2  0
 14 15  1  0
 15 16  2  0
 16 17  1  0
 17 18  1  0
 13 19  1  0
 17 19  2  0
  6 20  1  0
 20 21  2  0
 21 22  1  0
 21 23  1  0
 23 24  1  0
 24 25  1  0
 25 26  1  0
 23 27  2  0
 27 28  1  0
 28 29  1  0
 29 30  1  0
 30 31  1  0
 20 32  1  0
 28 32  2  0
  4 33  2  0
 33 34  1  0
  2 35  1  0
 34 35  2  0
 35 36  1  0
 36 37  2  0
 36 38  1  0
M  END
$$$$
