1YGC_905_H_1
     RDKit          3D

 38 40  0  0  0  0  0  0  0  0999 V2000
   14.0681   37.5816   31.8769 O   0  0  0  0  0  0  0  0  0  0  0  0
   13.0399   38.1077   31.1092 C   0  0  0  0  0  0  0  0  0  0  0  0
   12.0537   38.8575   31.7227 C   0  0  0  0  0  0  0  0  0  0  0  0
   10.9956   39.4193   31.0412 C   0  0  0  0  0  0  0  0  0  0  0  0
    9.9804   40.1983   31.7146 N   0  0  0  0  0  0  0  0  0  0  0  0
   10.4336   41.4097   32.3851 C   0  0  1  0  0  0  0  0  0  0  0  0
   10.0901   42.4806   31.4543 C   0  0  0  0  0  0  0  0  0  0  0  0
    8.7924   42.7105   31.3974 O   0  0  0  0  0  0  0  0  0  0  0  0
   10.8369   43.2941   30.6225 N   0  0  0  0  0  0  0  0  0  0  0  0
   10.0389   44.6001   29.7697 S   0  0  2  0  0  0  0  0  0  0  0  0
   10.9783   45.1863   28.7661 O   0  0  0  0  0  0  0  0  0  0  0  0
    9.5885   45.5842   30.7840 O   0  0  0  0  0  0  0  0  0  0  0  0
    8.6276   43.9351   28.9598 C   0  0  0  0  0  0  0  0  0  0  0  0
    7.4777   44.7097   28.9939 C   0  0  0  0  0  0  0  0  0  0  0  0
    6.3463   44.2025   28.3475 C   0  0  0  0  0  0  0  0  0  0  0  0
    6.3667   42.9790   27.6982 C   0  0  0  0  0  0  0  0  0  0  0  0
    7.5211   42.2082   27.6671 C   0  0  0  0  0  0  0  0  0  0  0  0
    7.5473   40.9528   26.9956 N   0  0  0  0  0  0  0  0  0  0  0  0
    8.6463   42.7165   28.3126 C   0  0  0  0  0  0  0  0  0  0  0  0
    9.9876   41.4555   33.7716 C   0  0  0  0  0  0  0  0  0  0  0  0
   10.1604   42.5377   34.6112 C   0  0  0  0  0  0  0  0  0  0  0  0
   10.8678   43.6153   34.2411 F   0  0  0  0  0  0  0  0  0  0  0  0
    9.6720   42.5823   35.9280 C   0  0  0  0  0  0  0  0  0  0  0  0
    9.9093   43.7160   36.6503 O   0  0  0  0  0  0  0  0  0  0  0  0
    9.3340   43.9730   37.8968 C   0  0  0  0  0  0  0  0  0  0  0  0
    9.6937   45.3502   38.3508 C   0  0  0  0  0  0  0  0  0  0  0  0
    8.9845   41.5213   36.4558 C   0  0  0  0  0  0  0  0  0  0  0  0
    8.7962   40.4261   35.6484 C   0  0  0  0  0  0  0  0  0  0  0  0
    8.1058   39.3207   36.1273 O   0  0  0  0  0  0  0  0  0  0  0  0
    8.6490   38.3620   36.9973 C   0  0  0  0  0  0  0  0  0  0  0  0
    7.6963   37.3148   37.4749 C   0  0  0  0  0  0  0  0  0  0  0  0
    9.2809   40.3804   34.3362 C   0  0  0  0  0  0  0  0  0  0  0  0
   10.9607   39.1965   29.6790 C   0  0  0  0  0  0  0  0  0  0  0  0
   11.9437   38.4434   29.0325 C   0  0  0  0  0  0  0  0  0  0  0  0
   12.9900   37.8944   29.7453 C   0  0  0  0  0  0  0  0  0  0  0  0
   14.0416   37.1001   29.1244 C   0  0  0  0  0  0  0  0  0  0  0  0
   13.9464   36.8824   27.8380 N   0  0  0  0  0  0  0  0  0  0  0  0
   15.1472   36.5580   29.8351 N   0  0  0  0  0  0  0  0  0  0  0  0
  1  2  1  0
  2  3  2  0
  3  4  1  0
  4  5  1  0
  6  5  1  6
  6  7  1  0
  7  8  2  0
  7  9  1  0
 10  9  1  1
 10 11  2  0
 10 12  2  0
 10 13  1  0
 13 14  2  0
 14 15  1  0
 15 16  2  0
 16 17  1  0
 17 18  1  0
 13 19  1  0
 17 19  2  0
  6 20  1  0
 20 21  2  0
 21 22  1  0
 21 23  1  0
 23 24  1  0
 24 25  1  0
 25 26  1  0
 23 27  2  0
 27 28  1  0
 28 29  1  0
 29 30  1  0
 30 31  1  0
 20 32  1  0
 28 32  2  0
  4 33  2  0
 33 34  1  0
  2 35  1  0
 34 35  2  0
 35 36  1  0
 36 37  2  0
 36 38  1  0
M  END
$$$$
