1R55_097_A_518
     RDKit          3D

 23 22  0  0  0  0  0  0  0  0999 V2000
    9.2380   13.3090   24.5120 N   0  0  0  0  0  0  0  0  0  0  0  0
   11.0490   16.6580   24.4840 C   0  0  0  0  0  0  0  0  0  0  0  0
   11.1370   12.5040   22.5230 O   0  0  0  0  0  0  0  0  0  0  0  0
    9.3710   13.6010   25.8150 C   0  0  0  0  0  0  0  0  0  0  0  0
    7.7670   18.2020   29.0500 O   0  0  0  0  0  0  0  0  0  0  0  0
    9.4500   11.9230   24.1200 C   0  0  1  0  0  0  0  0  0  0  0  0
    8.2890   11.4530   23.2340 C   0  0  0  0  0  0  0  0  0  0  0  0
    8.1580   12.3860   22.0150 C   0  0  0  0  0  0  0  0  0  0  0  0
    8.5450   10.0130   22.7590 C   0  0  0  0  0  0  0  0  0  0  0  0
   10.7830   11.7330   23.4160 C   0  0  0  0  0  0  0  0  0  0  0  0
   12.7670   10.3810   23.2210 C   0  0  0  0  0  0  0  0  0  0  0  0
    7.9160   16.8480   28.8540 N   0  0  0  0  0  0  0  0  0  0  0  0
    7.6330   16.5310   27.5810 C   0  0  0  0  0  0  0  0  0  0  0  0
    7.1610   17.3410   26.7870 O   0  0  0  0  0  0  0  0  0  0  0  0
    7.9410   15.1230   27.1540 C   0  0  1  0  0  0  0  0  0  0  0  0
    6.7810   14.4760   26.6530 O   0  0  0  0  0  0  0  0  0  0  0  0
    9.0900   15.0580   26.1490 C   0  0  1  0  0  0  0  0  0  0  0  0
   10.3530   15.7170   26.7200 C   0  0  0  0  0  0  0  0  0  0  0  0
   11.4960   15.8800   25.7060 C   0  0  0  0  0  0  0  0  0  0  0  0
   12.6810   16.5890   26.3600 C   0  0  0  0  0  0  0  0  0  0  0  0
    9.6760   12.7950   26.6940 O   0  0  0  0  0  0  0  0  0  0  0  0
    6.9900   11.5010   24.0580 C   0  0  0  0  0  0  0  0  0  0  0  0
   11.5000   10.6890   23.8780 N   0  0  0  0  0  0  0  0  0  0  0  0
  1  4  1  0
  6  1  1  6
  6  7  1  0
  7  8  1  0
  7  9  1  0
  3 10  2  0
  6 10  1  0
  5 12  1  0
 12 13  1  0
 13 14  2  0
 13 15  1  0
 15 16  1  6
  4 17  1  0
 15 17  1  0
 17 18  1  1
  2 19  1  0
 18 19  1  0
 19 20  1  0
  4 21  2  0
  7 22  1  0
 10 23  1  0
 11 23  1  0
M  END
$$$$
