7P4J_5JK_A_904
     RDKit          3D

 29 32  0  0  0  0  0  0  0  0999 V2000
    3.2891   28.0964    2.2573 C   0  0  0  0  0  0  0  0  0  0  0  0
    3.0687   27.4831    0.9210 C   0  0  2  0  0  0  0  0  0  0  0  0
    1.8372   26.5852    1.0290 C   0  0  0  0  0  0  0  0  0  0  0  0
    2.0408   25.4189    1.9236 C   0  0  0  0  0  0  0  0  0  0  0  0
    3.2343   24.5718    1.5848 C   0  0  2  0  0  0  0  0  0  0  0  0
    3.3954   23.4045    2.4730 C   0  0  1  0  0  0  0  0  0  0  0  0
    2.7776   23.5814    3.8404 C   0  0  0  0  0  0  0  0  0  0  0  0
    2.6967   22.2079    1.8494 C   0  0  0  0  0  0  0  0  0  0  0  0
    2.9403   20.9394    2.6179 C   0  0  0  0  0  0  0  0  0  0  0  0
    4.3777   20.6550    2.8970 C   0  0  2  0  0  0  0  0  0  0  0  0
    4.4809   19.5122    3.6496 O   0  0  0  0  0  0  0  0  0  0  0  0
    5.0838   21.8316    3.5732 C   0  0  0  0  0  0  0  0  0  0  0  0
    4.8105   22.9821    2.6591 C   0  0  0  0  0  0  0  0  0  0  0  0
    5.8383   23.5722    2.0569 C   0  0  0  0  0  0  0  0  0  0  0  0
    5.6923   24.7243    1.1265 C   0  0  1  0  0  0  0  0  0  0  0  0
    5.6282   24.3392   -0.2018 O   0  0  0  0  0  0  0  0  0  0  0  0
    4.4541   25.4728    1.5691 C   0  0  1  0  0  0  0  0  0  0  0  0
    4.1491   26.4924    0.5334 C   0  0  2  0  0  0  0  0  0  0  0  0
    5.2512   27.3240    0.0189 C   0  0  0  0  0  0  0  0  0  0  0  0
    4.4332   28.1670   -0.9692 C   0  0  0  0  0  0  0  0  0  0  0  0
    3.0855   28.3546   -0.2554 C   0  0  2  0  0  0  0  0  0  0  0  0
    2.8743   29.8047   -0.1541 C   0  0  2  0  0  0  0  0  0  0  0  0
    1.6385   30.2414    0.5625 C   0  0  0  0  0  0  0  0  0  0  0  0
    3.0927   30.6062   -1.3954 C   0  0  0  0  0  0  0  0  0  0  0  0
    4.5901   30.6848   -1.7040 C   0  0  0  0  0  0  0  0  0  0  0  0
    4.8293   31.3945   -3.0209 C   0  0  0  0  0  0  0  0  0  0  0  0
    6.3576   31.4416   -3.1600 C   0  0  2  0  0  0  0  0  0  0  0  0
    6.9990   32.0430   -1.9151 C   0  0  0  0  0  0  0  0  0  0  0  0
    6.7866   32.1404   -4.4206 C   0  0  0  0  0  0  0  0  0  0  0  0
  2  1  1  1
  2  3  1  0
  3  4  1  0
  5  4  1  1
  5  6  1  0
  6  7  1  1
  6  8  1  0
  8  9  1  0
  9 10  1  0
 10 11  1  1
 10 12  1  0
 12 13  1  0
  6 13  1  0
 13 14  2  0
 14 15  1  0
 15 16  1  6
 17 15  1  6
  5 17  1  0
 17 18  1  0
  2 18  1  0
 18 19  1  1
 19 20  1  0
 21 20  1  1
  2 21  1  0
 21 22  1  0
 22 23  1  6
 22 24  1  0
 24 25  1  0
 25 26  1  0
 26 27  1  0
 27 28  1  1
 27 29  1  0
M  END
$$$$
