8FO5_Y4U_C_301
     RDKit          3D

 28 29  0  0  0  0  0  0  0  0999 V2000
   29.9560  -17.6701   16.7164 O   0  0  0  0  0  0  0  0  0  0  0  0
   30.4033  -18.1339    9.9824 O   0  0  0  0  0  0  0  0  0  0  0  0
   32.6001  -20.2948   10.2560 C   0  0  0  0  0  0  0  0  0  0  0  0
   33.4352  -21.4035   10.0843 C   0  0  0  0  0  0  0  0  0  0  0  0
   33.0667  -22.6456   10.6091 C   0  0  0  0  0  0  0  0  0  0  0  0
   31.8641  -22.7798   11.3092 C   0  0  0  0  0  0  0  0  0  0  0  0
   31.0271  -21.6730   11.4823 C   0  0  0  0  0  0  0  0  0  0  0  0
   31.7488  -17.1325   12.5957 C   0  0  0  0  0  0  0  0  0  0  0  0
   31.9610  -16.7174   13.8955 C   0  0  0  0  0  0  0  0  0  0  0  0
   31.1838  -17.5387   14.6978 C   0  0  0  0  0  0  0  0  0  0  0  0
   31.0769  -17.4957   16.1670 C   0  0  0  0  0  0  0  0  0  0  0  0
   32.2819  -17.2478   17.0192 C   0  0  1  0  0  0  0  0  0  0  0  0
   30.5296  -18.4201   13.8574 C   0  0  0  0  0  0  0  0  0  0  0  0
   30.3479  -19.0292   11.1888 S   0  0  2  0  0  6  0  0  0  0  0  0
   28.9246  -19.4735   11.3805 O   0  0  0  0  0  0  0  0  0  0  0  0
   30.8782  -18.1579   12.5859 N   0  0  0  0  0  0  0  0  0  0  0  0
   31.3883  -20.4271   10.9493 C   0  0  0  0  0  0  0  0  0  0  0  0
   32.8998  -19.3359    9.8527 H   0  0  0  0  0  0  0  0  0  0  0  0
   34.3689  -21.2991    9.5470 H   0  0  0  0  0  0  0  0  0  0  0  0
   33.7143  -23.5028   10.4766 H   0  0  0  0  0  0  0  0  0  0  0  0
   31.5820  -23.7407   11.7200 H   0  0  0  0  0  0  0  0  0  0  0  0
   30.1023  -21.7863   12.0337 H   0  0  0  0  0  0  0  0  0  0  0  0
   32.2123  -16.7125   11.7124 H   0  0  0  0  0  0  0  0  0  0  0  0
   32.6123  -15.9148   14.2157 H   0  0  0  0  0  0  0  0  0  0  0  0
   32.5734  -16.1786   16.9540 H   0  0  0  0  0  0  0  0  0  0  0  0
   32.0666  -17.4945   18.0807 H   0  0  0  0  0  0  0  0  0  0  0  0
   33.1242  -17.8810   16.6701 H   0  0  0  0  0  0  0  0  0  0  0  0
   29.8496  -19.2078   14.1562 H   0  0  0  0  0  0  0  0  0  0  0  0
  3  4  2  0
  4  5  1  0
  5  6  2  0
  6  7  1  0
  8  9  2  0
  9 10  1  0
  1 11  2  0
 10 11  1  0
 11 12  1  0
 10 13  2  0
  2 14  2  0
 14 15  2  0
 14 16  1  1
 13 16  1  0
  8 16  1  0
  7 17  2  0
 14 17  1  0
  3 17  1  0
  3 18  1  0
  4 19  1  0
  5 20  1  0
  6 21  1  0
  7 22  1  0
  8 23  1  0
  9 24  1  0
 12 25  1  1
 12 26  1  0
 12 27  1  0
 13 28  1  0
M  END
