
     RDKit          3D

 34 37  0  0  0  0  0  0  0  0999 V2000
   40.8598   -1.4385   10.4076 N   0  0  0  0  0  0  0  0  0  0  0  0
   40.2349   -1.1975   11.6318 C   0  0  0  0  0  0  0  0  0  0  0  0
   39.4101   -2.2861   12.1891 C   0  0  0  0  0  0  0  0  0  0  0  0
   39.4148   -3.4747   11.5863 C   0  0  0  0  0  0  0  0  0  0  0  0
   40.1613   -3.6734   10.4567 N   0  0  0  0  0  0  0  0  0  0  0  0
   40.8834   -2.7034    9.8197 C   0  0  0  0  0  0  0  0  0  0  0  0
   41.3498   -0.0298    8.4401 C   0  0  0  0  0  0  0  0  0  0  0  0
   42.0114    1.0296    7.8217 C   0  0  0  0  0  0  0  0  0  0  0  0
   43.2086    1.4552    9.8757 C   0  0  0  0  0  0  0  0  0  0  0  0
   45.3162    0.8323   12.1083 C   0  0  0  0  0  0  0  0  0  0  0  0
   47.6756    0.4718   11.7513 C   0  0  0  0  0  0  0  0  0  0  0  0
   46.4318    1.8897   10.2194 C   0  0  0  0  0  0  0  0  0  0  0  0
   46.3907    2.7604    8.9970 C   0  0  0  0  0  0  0  0  0  0  0  0
   47.6328    1.2879   10.6189 C   0  0  0  0  0  0  0  0  0  0  0  0
   46.5184    0.2408   12.4925 C   0  0  0  0  0  0  0  0  0  0  0  0
   45.2791    1.6713   10.9892 C   0  0  0  0  0  0  0  0  0  0  0  0
   44.1003    2.2491   10.5687 O   0  0  0  0  0  0  0  0  0  0  0  0
   42.5216    0.3974   10.4960 C   0  0  0  0  0  0  0  0  0  0  0  0
   42.9376    1.7868    8.5423 C   0  0  0  0  0  0  0  0  0  0  0  0
   43.6064    2.8774    7.8949 C   0  0  0  0  0  0  0  0  0  0  0  0
   44.1335    3.7496    7.3395 N   0  0  0  0  0  0  0  0  0  0  0  0
   40.5439   -0.7882    7.6817 F   0  0  0  0  0  0  0  0  0  0  0  0
   41.5758   -0.3585    9.7861 C   0  0  0  0  0  0  0  0  0  0  0  0
   40.3610   -0.1876   12.3226 O   0  0  0  0  0  0  0  0  0  0  0  0
   41.4568   -3.0053    8.7746 O   0  0  0  0  0  0  0  0  0  0  0  0
   38.4619   -4.7709   12.2918 S   0  0  2  0  0  6  0  0  0  0  0  0
   39.2265   -5.4259   13.3363 O   0  0  0  0  0  0  0  0  0  0  0  0
   37.8772   -5.5403   11.2071 O   0  0  0  0  0  0  0  0  0  0  0  0
   37.1301   -3.8802   13.0690 C   0  0  0  0  0  0  0  0  0  0  0  0
   36.0892   -3.3799   12.2796 C   0  0  0  0  0  0  0  0  0  0  0  0
   35.0462   -2.6808   12.8860 C   0  0  0  0  0  0  0  0  0  0  0  0
   35.0413   -2.4941   14.2695 C   0  0  0  0  0  0  0  0  0  0  0  0
   36.0735   -3.0119   15.0541 C   0  0  0  0  0  0  0  0  0  0  0  0
   37.1210   -3.7129   14.4572 C   0  0  0  0  0  0  0  0  0  0  0  0
  1  2  4  0
  2  3  4  0
  3  4  4  0
  4  5  4  0
  1  6  4  0
  5  6  4  0
  7  8  4  0
 12 13  1  0
 12 14  4  0
 11 14  4  0
 11 15  4  0
 10 15  4  0
 12 16  4  0
 10 16  4  0
 16 17  1  0
  9 17  1  0
  9 18  4  0
  9 19  4  0
  8 19  4  0
 19 20  1  0
 20 21  3  0
  7 22  1  0
 18 23  4  0
  7 23  4  0
  1 23  1  0
  2 24  2  0
  6 25  2  0
 26  4  1  6
 26 27  2  0
 26 28  2  0
 26 29  1  0
 29 30  4  0
 30 31  4  0
 31 32  4  0
 32 33  4  0
 29 34  4  0
 33 34  4  0
M  END
