7OKF_VH5_A_201
     RDKit          3D

 28 31  0  0  0  0  0  0  0  0999 V2000
  -30.0485   26.6804   16.2349 C   0  0  0  0  0  0  0  0  0  0  0  0
  -30.4486   25.5284   16.9370 C   0  0  0  0  0  0  0  0  0  0  0  0
  -31.4779   24.7769   16.3839 C   0  0  0  0  0  0  0  0  0  0  0  0
  -32.0468   25.1855   15.1981 C   0  0  0  0  0  0  0  0  0  0  0  0
  -30.2810   24.0412   18.8825 C   0  0  0  0  0  0  0  0  0  0  0  0
  -29.3009   23.2699   19.4851 C   0  0  0  0  0  0  0  0  0  0  0  0
  -30.9702   21.8069   20.3915 C   0  0  0  0  0  0  0  0  0  0  0  0
  -31.9725   22.5841   19.7870 C   0  0  0  0  0  0  0  0  0  0  0  0
  -33.5911   21.0749   20.7333 C   0  0  0  0  0  0  0  0  0  0  0  0
  -28.9776   27.4858   16.7327 C   0  0  0  0  0  0  0  0  0  0  0  0
  -28.1352   28.1429   17.0895 N   0  0  0  0  0  0  0  0  0  0  0  0
  -31.6765   26.2773   14.5292 N   0  0  0  0  0  0  0  0  0  0  0  0
  -30.7086   26.9853   15.0524 C   0  0  0  0  0  0  0  0  0  0  0  0
  -30.2422   28.4045   14.1868 Cl  0  0  0  0  0  0  0  0  0  0  0  0
  -29.8420   25.1364   18.1206 N   0  0  0  0  0  0  0  0  0  0  0  0
  -31.6142   23.7003   19.0352 C   0  0  0  0  0  0  0  0  0  0  0  0
  -33.3630   22.1812   19.9757 C   0  0  0  0  0  0  0  0  0  0  0  0
  -34.3617   22.9066   19.3940 N   0  0  0  0  0  0  0  0  0  0  0  0
  -34.1905   23.1606   17.9633 C   0  0  0  0  0  0  0  0  0  0  0  0
  -35.1817   24.1962   17.4999 C   0  0  0  0  0  0  0  0  0  0  0  0
  -36.5457   23.7737   17.7915 N   0  0  0  0  0  0  0  0  0  0  0  0
  -37.4998   24.7445   17.2962 C   0  0  0  0  0  0  0  0  0  0  0  0
  -36.6979   23.5880   19.2285 C   0  0  0  0  0  0  0  0  0  0  0  0
  -35.7337   22.5386   19.7392 C   0  0  0  0  0  0  0  0  0  0  0  0
  -32.5954   20.2773   21.3542 C   0  0  0  0  0  0  0  0  0  0  0  0
  -32.8182   19.2918   22.0302 O   0  0  0  0  0  0  0  0  0  0  0  0
  -31.3166   20.6922   21.1448 N   0  0  0  0  0  0  0  0  0  0  0  0
  -29.6427   22.1631   20.2314 C   0  0  0  0  0  0  0  0  0  0  0  0
  1  2  2  0
  2  3  1  0
  3  4  2  0
  5  6  2  0
  7  8  1  0
  1 10  1  0
 10 11  3  0
  4 12  1  0
 12 13  2  0
  1 13  1  0
 13 14  1  0
  2 15  1  0
  5 15  1  0
  5 16  1  0
  8 16  2  0
  8 17  1  0
  9 17  2  0
 17 18  1  0
 18 19  1  0
 19 20  1  0
 20 21  1  0
 21 22  1  0
 21 23  1  0
 18 24  1  0
 23 24  1  0
  9 25  1  0
 25 26  2  0
  7 27  1  0
 25 27  1  0
  6 28  1  0
  7 28  2  0
M  END
