7Q5I_I0F_AAA_901
     RDKit          3D

 27 28  0  0  0  0  0  0  0  0999 V2000
   30.0054   26.0762   29.2722 N   0  0  0  0  0  0  0  0  0  0  0  0
   33.5490   26.5550   27.0083 C   0  0  1  0  0  0  0  0  0  0  0  0
   32.3611   27.5331   26.9028 C   0  0  1  0  0  0  0  0  0  0  0  0
   32.1498   28.0177   25.4739 C   0  0  0  0  0  0  0  0  0  0  0  0
   29.0869   26.9357   29.7163 C   0  0  0  0  0  0  0  0  0  0  0  0
   28.8769   26.9540   31.2367 C   0  0  0  0  0  0  0  0  0  0  0  0
   29.0673   28.4736   33.3263 C   0  0  0  0  0  0  0  0  0  0  0  0
   28.9004   28.6334   36.1430 C   0  0  0  0  0  0  0  0  0  0  0  0
   29.0814   29.7289   33.9525 C   0  0  0  0  0  0  0  0  0  0  0  0
   27.4527   28.9038   38.1207 C   0  0  0  0  0  0  0  0  0  0  0  0
   29.9210   28.2846   38.3500 C   0  0  0  0  0  0  0  0  0  0  0  0
   28.7799   28.7026   37.5190 N   0  0  0  0  0  0  0  0  0  0  0  0
   28.9918   29.7931   35.3445 C   0  0  0  0  0  0  0  0  0  0  0  0
   28.9101   27.3887   35.4957 C   0  0  0  0  0  0  0  0  0  0  0  0
   28.9927   27.3251   34.1054 C   0  0  0  0  0  0  0  0  0  0  0  0
   29.1118   28.2500   31.9438 C   0  0  0  0  0  0  0  0  0  0  0  0
   28.2855   25.8235   31.8055 C   0  0  0  0  0  0  0  0  0  0  0  0
   27.8477   24.8693   32.1828 N   0  0  0  0  0  0  0  0  0  0  0  0
   28.4780   27.7109   28.9895 O   0  0  0  0  0  0  0  0  0  0  0  0
   31.3018   26.5619   28.7883 C   0  0  2  0  0  0  0  0  0  0  0  0
   31.1518   26.8900   27.3498 O   0  0  0  0  0  0  0  0  0  0  0  0
   31.0733   27.2953   24.8727 O   0  0  0  0  0  0  0  0  0  0  0  0
   34.7624   27.2359   26.6741 O   0  0  0  0  0  0  0  0  0  0  0  0
   33.6788   25.9991   28.4227 C   0  0  2  0  0  0  0  0  0  0  0  0
   34.6727   24.9837   28.4388 O   0  0  0  0  0  0  0  0  0  0  0  0
   32.3263   25.4509   28.9201 C   0  0  1  0  0  0  0  0  0  0  0  0
   32.4079   25.0835   30.2996 O   0  0  0  0  0  0  0  0  0  0  0  0
  2  3  1  0
  3  4  1  6
  1  5  1  0
  5  6  1  0
  7  9  2  0
  8 12  1  0
 10 12  1  0
 11 12  1  0
  9 13  1  0
  8 13  2  0
  8 14  1  0
  7 15  1  0
 14 15  2  0
  6 16  2  0
  7 16  1  0
  6 17  1  0
 17 18  3  0
  5 19  2  0
 20  1  1  6
  3 21  1  0
 20 21  1  0
  4 22  1  0
  2 23  1  1
  2 24  1  0
 24 25  1  6
 24 26  1  0
 20 26  1  0
 26 27  1  1
M  END
