8G0V_YHT_C_701
     RDKit          3D

 42 44  0  0  0  0  0  0  0  0999 V2000
  -16.6547    7.8948    8.4549 C   0  0  1  0  0  0  0  0  0  0  0  0
  -15.4348    8.6637    7.9844 C   0  0  2  0  0  0  0  0  0  0  0  0
  -14.2841    7.6582    8.1623 C   0  0  2  0  0  0  0  0  0  0  0  0
  -12.6957    7.9965    6.2226 C   0  0  0  0  0  0  0  0  0  0  0  0
  -13.2569    6.4443    4.8987 C   0  0  0  0  0  0  0  0  0  0  0  0
  -14.0249    6.3561    6.0082 C   0  0  0  0  0  0  0  0  0  0  0  0
  -15.9244    0.8041    6.5324 C   0  0  0  0  0  0  0  0  0  0  0  0
  -15.8313   -0.2399    5.9368 C   0  0  0  0  0  0  0  0  0  0  0  0
  -16.9150    5.5452    9.3911 C   0  0  2  0  0  0  0  0  0  0  0  0
  -16.0375    2.0716    7.2547 C   0  0  1  0  0  0  0  0  0  0  0  0
  -15.1830    4.5294    5.1344 C   0  0  0  0  0  0  0  0  0  0  0  0
  -13.4417    5.5456    3.8539 C   0  0  0  0  0  0  0  0  0  0  0  0
  -16.0389    6.8007    9.3158 C   0  0  1  0  0  0  0  0  0  0  0  0
  -13.6827    7.3238    6.8691 N   0  0  0  0  0  0  0  0  0  0  0  0
  -12.3994    7.4775    4.9985 N   0  0  0  0  0  0  0  0  0  0  0  0
  -14.9934    5.4205    6.1533 N   0  0  0  0  0  0  0  0  0  0  0  0
  -14.4134    4.5954    4.0004 N   0  0  0  0  0  0  0  0  0  0  0  0
  -12.6559    5.6038    2.6635 N   0  0  0  0  0  0  0  0  0  0  0  0
  -17.5392    8.6872    9.2047 O   0  0  0  0  0  0  0  0  0  0  0  0
  -14.7772    6.4846    8.7759 O   0  0  0  0  0  0  0  0  0  0  0  0
  -15.2134    9.8347    8.7368 O   0  0  0  0  0  0  0  0  0  0  0  0
  -16.6899    4.7350    8.2611 O   0  0  0  0  0  0  0  0  0  0  0  0
  -18.8367    3.6207    9.6238 O   0  0  0  0  0  0  0  0  0  0  0  0
  -17.1130    1.9840    8.1560 O   0  0  0  0  0  0  0  0  0  0  0  0
  -18.7406    3.7060    7.0109 O   0  0  0  0  0  0  0  0  0  0  0  0
  -17.8734    3.5098    8.2344 P   0  0  2  0  0  5  0  0  0  0  0  0
  -17.1785    7.4529    7.5744 H   0  0  0  0  0  0  0  0  0  0  0  0
  -15.5648    8.9549    6.9184 H   0  0  0  0  0  0  0  0  0  0  0  0
  -13.4960    8.0847    8.8230 H   0  0  0  0  0  0  0  0  0  0  0  0
  -12.1975    8.8661    6.6313 H   0  0  0  0  0  0  0  0  0  0  0  0
  -15.7497   -1.1563    5.4140 H   0  0  0  0  0  0  0  0  0  0  0  0
  -17.9806    5.8647    9.4523 H   0  0  0  0  0  0  0  0  0  0  0  0
  -16.6445    4.9972   10.3219 H   0  0  0  0  0  0  0  0  0  0  0  0
  -15.0767    2.2450    7.7887 H   0  0  0  0  0  0  0  0  0  0  0  0
  -16.2103    2.8749    6.5051 H   0  0  0  0  0  0  0  0  0  0  0  0
  -15.9462    3.7684    5.2225 H   0  0  0  0  0  0  0  0  0  0  0  0
  -15.8906    7.1823   10.3527 H   0  0  0  0  0  0  0  0  0  0  0  0
  -13.0546    6.0173    1.7917 H   0  0  0  0  0  0  0  0  0  0  0  0
  -11.6789    5.2353    2.6453 H   0  0  0  0  0  0  0  0  0  0  0  0
  -17.6822    9.5183    8.6809 H   0  0  0  0  0  0  0  0  0  0  0  0
  -15.5312    9.6715    9.6639 H   0  0  0  0  0  0  0  0  0  0  0  0
  -18.1991    3.5541   10.3789 H   0  0  0  0  0  0  0  0  0  0  0  0
  1  2  1  0
  2  3  1  0
  5  6  2  0
  7  8  3  0
  7 10  1  0
  5 12  1  0
 13  9  1  0
  1 13  1  0
  4 14  1  0
  6 14  1  0
  3 14  1  0
  4 15  2  0
  5 15  1  0
  6 16  1  0
 11 16  2  0
 12 17  2  0
 11 17  1  0
 12 18  1  0
  1 19  1  0
  3 20  1  0
 13 20  1  0
  2 21  1  0
  9 22  1  0
 10 24  1  0
 25 26  2  0
 26 24  1  6
 22 26  1  0
 26 23  1  0
  1 27  1  6
  2 28  1  6
  3 29  1  1
  4 30  1  0
  8 31  1  0
  9 32  1  1
  9 33  1  0
 10 34  1  1
 10 35  1  0
 11 36  1  0
 13 37  1  1
 18 38  1  0
 18 39  1  0
 19 40  1  0
 21 41  1  0
 23 42  1  0
M  END
