7OZC_G6S_AAA_601
     RDKit          3D

 28 28  0  0  0  0  0  0  0  0999 V2000
   -0.0206   -0.7976    1.2475 C   0  0  1  0  0  0  0  0  0  0  0  0
   -0.7220    0.5794    1.2288 C   0  0  2  0  0  0  0  0  0  0  0  0
   -1.7258    0.6875    0.0504 C   0  0  1  0  0  0  0  0  0  0  0  0
   -1.3431   -0.2440   -1.1256 C   0  0  1  0  0  0  0  0  0  0  0  0
    0.1860   -0.4808   -1.1270 C   0  0  2  0  0  0  0  0  0  0  0  0
    0.6364   -1.2651   -2.3672 C   0  0  0  0  0  0  0  0  0  0  0  0
   -0.9516   -1.7940    1.5795 O   0  0  0  0  0  0  0  0  0  0  0  0
    0.2543    1.5861    1.1313 O   0  0  0  0  0  0  0  0  0  0  0  0
   -2.0125   -1.4786   -1.0266 O   0  0  0  0  0  0  0  0  0  0  0  0
    0.6502   -1.1531    0.0380 O   0  0  0  0  0  0  0  0  0  0  0  0
   -0.3680   -2.1710   -2.7579 O   0  0  0  0  0  0  0  0  0  0  0  0
   -1.8109   -1.7414   -1.9805 S   0  0  2  0  0  6  0  0  0  0  0  0
   -2.6455   -0.8774   -2.8847 O   0  0  0  0  0  0  0  0  0  0  0  0
   -1.4782   -0.9596   -0.7418 O   0  0  0  0  0  0  0  0  0  0  0  0
   -2.6769   -3.1139   -1.5320 O   0  0  0  0  0  0  0  0  0  0  0  0
   -3.0279    0.3940    0.4925 O   0  0  0  0  0  0  0  0  0  0  0  0
    0.7453   -0.7586    2.0546 H   0  0  0  0  0  0  0  0  0  0  0  0
   -1.2631    0.6996    2.1976 H   0  0  0  0  0  0  0  0  0  0  0  0
   -1.7091    1.7351   -0.3363 H   0  0  0  0  0  0  0  0  0  0  0  0
   -1.6232    0.2613   -2.0809 H   0  0  0  0  0  0  0  0  0  0  0  0
    0.6914    0.5098   -1.1882 H   0  0  0  0  0  0  0  0  0  0  0  0
    1.5628   -1.8209   -2.1022 H   0  0  0  0  0  0  0  0  0  0  0  0
    0.8723   -0.5441   -3.1838 H   0  0  0  0  0  0  0  0  0  0  0  0
   -0.4348   -2.6315    1.7115 H   0  0  0  0  0  0  0  0  0  0  0  0
   -0.1743    2.4330    1.4245 H   0  0  0  0  0  0  0  0  0  0  0  0
   -2.8982   -1.3651   -1.4598 H   0  0  0  0  0  0  0  0  0  0  0  0
   -3.2727   -3.3095   -2.2984 H   0  0  0  0  0  0  0  0  0  0  0  0
   -3.3453    1.1857    1.0019 H   0  0  0  0  0  0  0  0  0  0  0  0
  1  2  1  0
  2  3  1  0
  3  4  1  0
  4  5  1  0
  5  6  1  0
  1  7  1  0
  2  8  1  0
  4  9  1  0
  1 10  1  0
  5 10  1  0
  6 11  1  0
 12 11  1  1
 12 13  2  0
 12 14  2  0
 12 15  1  0
  3 16  1  0
  1 17  1  6
  2 18  1  6
  3 19  1  1
  4 20  1  1
  5 21  1  1
  6 22  1  0
  6 23  1  0
  7 24  1  0
  8 25  1  0
  9 26  1  0
 15 27  1  0
 16 28  1  0
M  END
