1KZK_JE2_A_701
     RDKit          3D

 78 81  0  0  0  0  0  0  0  0999 V2000
   26.3433    4.3954   17.7491 C   0  0  0  0  0  0  0  0  0  0  0  0
   25.0649    4.8456   17.5782 C   0  0  0  0  0  0  0  0  0  0  0  0
   23.9635    3.9424   17.6021 C   0  0  0  0  0  0  0  0  0  0  0  0
   24.1742    2.5791   17.9341 C   0  0  0  0  0  0  0  0  0  0  0  0
   25.4930    2.0839   18.1643 C   0  0  0  0  0  0  0  0  0  0  0  0
   26.5753    3.0116   18.0064 C   0  0  0  0  0  0  0  0  0  0  0  0
   25.8033    0.6615   18.6171 C   0  0  0  0  0  0  0  0  0  0  0  0
   22.9826    1.6845   17.9949 C   0  0  0  0  0  0  0  0  0  0  0  0
   27.8369    2.5623   18.2646 O   0  0  0  0  0  0  0  0  0  0  0  0
   21.7748    2.1801   17.9620 O   0  0  0  0  0  0  0  0  0  0  0  0
   20.4670   -1.5779   17.1112 C   0  0  0  0  0  0  0  0  0  0  0  0
   23.2256    0.3933   18.1520 N   0  0  0  0  0  0  0  0  0  0  0  0
   19.7801   -2.5993   16.8999 O   0  0  0  0  0  0  0  0  0  0  0  0
   21.8090   -1.5816   17.8426 C   0  0  1  0  0  0  0  0  0  0  0  0
   20.6432    0.6550   16.3634 C   0  0  0  0  0  0  0  0  0  0  0  0
   22.0365    0.2336   15.9672 C   0  0  0  0  0  0  0  0  0  0  0  0
   18.0662    1.4190   17.3077 C   0  0  0  0  0  0  0  0  0  0  0  0
   22.7597   -0.5997   17.1136 C   0  0  1  0  0  0  0  0  0  0  0  0
   21.5644   -1.1510   19.1801 O   0  0  0  0  0  0  0  0  0  0  0  0
   19.6105   -0.3296   16.4555 C   0  0  0  0  0  0  0  0  0  0  0  0
   20.3547    1.9811   16.7530 C   0  0  0  0  0  0  0  0  0  0  0  0
   18.3289    0.0906   16.9359 C   0  0  0  0  0  0  0  0  0  0  0  0
   19.0952    2.3596   17.1923 C   0  0  0  0  0  0  0  0  0  0  0  0
   18.6249    0.4786   18.6021 C   0  0  0  0  0  0  0  0  0  0  0  0
   19.9770   -0.3593   16.7106 N   0  0  0  0  0  0  0  0  0  0  0  0
   17.5952    0.8698   19.2281 O   0  0  0  0  0  0  0  0  0  0  0  0
   18.6216    0.0771   17.1124 C   0  0  2  0  0  0  0  0  0  0  0  0
   18.2572    1.2279   16.1285 C   0  0  1  0  0  0  0  0  0  0  0  0
   20.7864    0.6338   15.9121 C   0  0  0  0  0  0  0  0  0  0  0  0
   17.8493    0.6028   14.7930 C   0  0  0  0  0  0  0  0  0  0  0  0
   17.1003    2.1118   16.6311 C   0  0  0  0  0  0  0  0  0  0  0  0
   19.8183    2.1667   15.9447 S   0  0  0  0  0  0  0  0  0  0  0  0
   19.8712    0.3278   19.2250 N   0  0  0  0  0  0  0  0  0  0  0  0
   21.1321    0.3548   18.4450 C   0  0  0  0  0  0  0  0  0  0  0  0
   22.3202    0.6114   19.3824 C   0  0  0  0  0  0  0  0  0  0  0  0
   23.6254    0.8206   18.8865 C   0  0  0  0  0  0  0  0  0  0  0  0
   24.6421    1.1272   19.7967 C   0  0  0  0  0  0  0  0  0  0  0  0
   24.3572    1.1965   21.1836 C   0  0  0  0  0  0  0  0  0  0  0  0
   23.0963    0.9974   21.6687 C   0  0  0  0  0  0  0  0  0  0  0  0
   22.0639    0.7148   20.7449 C   0  0  0  0  0  0  0  0  0  0  0  0
   23.9087    0.7942   17.4352 C   0  0  0  0  0  0  0  0  0  0  0  0
   27.1368    5.0528   17.6923 H   0  0  0  0  0  0  0  0  0  0  0  0
   24.8948    5.8526   17.4299 H   0  0  0  0  0  0  0  0  0  0  0  0
   23.0139    4.2791   17.3784 H   0  0  0  0  0  0  0  0  0  0  0  0
   24.8935    0.1023   18.6848 H   0  0  0  0  0  0  0  0  0  0  0  0
   26.4563    0.1961   17.9086 H   0  0  0  0  0  0  0  0  0  0  0  0
   26.2778    0.6880   19.5758 H   0  0  0  0  0  0  0  0  0  0  0  0
   28.5682    3.1406   18.1720 H   0  0  0  0  0  0  0  0  0  0  0  0
   23.7116    0.0789   18.9483 H   0  0  0  0  0  0  0  0  0  0  0  0
   22.2596   -2.5520   17.8543 H   0  0  0  0  0  0  0  0  0  0  0  0
   21.9765   -0.3714   15.0867 H   0  0  0  0  0  0  0  0  0  0  0  0
   22.6109    1.1192   15.7920 H   0  0  0  0  0  0  0  0  0  0  0  0
   17.1356    1.6950   17.6581 H   0  0  0  0  0  0  0  0  0  0  0  0
   23.5462   -1.1664   16.6606 H   0  0  0  0  0  0  0  0  0  0  0  0
   21.1559   -0.2714   19.1670 H   0  0  0  0  0  0  0  0  0  0  0  0
   19.7831   -1.3104   16.1848 H   0  0  0  0  0  0  0  0  0  0  0  0
   21.1035    2.6899   16.7094 H   0  0  0  0  0  0  0  0  0  0  0  0
   17.5721   -0.6068   17.0115 H   0  0  0  0  0  0  0  0  0  0  0  0
   18.9150    3.3459   17.4368 H   0  0  0  0  0  0  0  0  0  0  0  0
   17.8774   -0.6889   17.0449 H   0  0  0  0  0  0  0  0  0  0  0  0
   21.7452    0.7853   16.3622 H   0  0  0  0  0  0  0  0  0  0  0  0
   20.9660    0.2941   14.9134 H   0  0  0  0  0  0  0  0  0  0  0  0
   16.9365    0.0587   14.9179 H   0  0  0  0  0  0  0  0  0  0  0  0
   17.7075    1.3752   14.0662 H   0  0  0  0  0  0  0  0  0  0  0  0
   18.6186   -0.0625   14.4608 H   0  0  0  0  0  0  0  0  0  0  0  0
   16.2132    1.5205   16.7222 H   0  0  0  0  0  0  0  0  0  0  0  0
   17.3543    2.5230   17.5858 H   0  0  0  0  0  0  0  0  0  0  0  0
   16.9296    2.9060   15.9347 H   0  0  0  0  0  0  0  0  0  0  0  0
   19.9104    0.2015   20.2005 H   0  0  0  0  0  0  0  0  0  0  0  0
   21.2651   -0.5859   17.9528 H   0  0  0  0  0  0  0  0  0  0  0  0
   21.0805    1.1386   17.7185 H   0  0  0  0  0  0  0  0  0  0  0  0
   25.6009    1.3033   19.4581 H   0  0  0  0  0  0  0  0  0  0  0  0
   25.1228    1.4028   21.8441 H   0  0  0  0  0  0  0  0  0  0  0  0
   22.9024    1.0516   22.6808 H   0  0  0  0  0  0  0  0  0  0  0  0
   21.1000    0.5827   21.0892 H   0  0  0  0  0  0  0  0  0  0  0  0
   23.0158    0.5424   16.9019 H   0  0  0  0  0  0  0  0  0  0  0  0
   24.2518    1.7578   17.1212 H   0  0  0  0  0  0  0  0  0  0  0  0
   24.6635    0.0633   17.2324 H   0  0  0  0  0  0  0  0  0  0  0  0
  1  2  2  0
  2  3  1  0
  3  4  2  0
  4  5  1  0
  1  6  1  0
  5  6  2  0
  5  7  1  0
  4  8  1  0
  6  9  1  0
  8 10  2  0
  8 12  1  0
 11 13  2  0
 11 14  1  0
 15 16  1  0
 12 18  1  0
 18 16  1  0
 14 18  1  0
 14 19  1  0
 15 20  2  0
 15 21  1  0
 20 22  1  0
 17 22  2  0
 17 23  1  0
 21 23  2  0
 11 25  1  0
 24 26  2  0
 25 27  1  0
 27 24  1  0
 27 28  1  0
 25 29  1  0
 28 30  1  1
 28 31  1  0
 29 32  1  0
 28 32  1  0
 24 33  1  0
 33 34  1  0
 34 35  1  0
 35 36  2  0
 36 37  1  0
 37 38  2  0
 38 39  1  0
 35 40  1  0
 39 40  2  0
 36 41  1  0
  1 42  1  0
  2 43  1  0
  3 44  1  0
  7 45  1  0
  7 46  1  0
  7 47  1  0
  9 48  1  0
 12 49  1  0
 14 50  1  6
 16 51  1  0
 16 52  1  0
 17 53  1  0
 18 54  1  1
 19 55  1  0
 20 56  1  0
 21 57  1  0
 22 58  1  0
 23 59  1  0
 27 60  1  6
 29 61  1  0
 29 62  1  0
 30 63  1  0
 30 64  1  0
 30 65  1  0
 31 66  1  0
 31 67  1  0
 31 68  1  0
 33 69  1  0
 34 70  1  0
 34 71  1  0
 37 72  1  0
 38 73  1  0
 39 74  1  0
 40 75  1  0
 41 76  1  0
 41 77  1  0
 41 78  1  0
M  END
