8AY3_OE3_A_501
     RDKit          3D

 45 47  0  0  0  0  0  0  0  0999 V2000
    0.7310    0.8983   -0.5012 C   0  0  0  0  0  0  0  0  0  0  0  0
    2.8616   -2.3551    1.1483 N   0  0  0  0  0  0  0  0  0  0  0  0
    0.7414   -1.2994    0.5165 C   0  0  0  0  0  0  0  0  0  0  0  0
    2.1549   -1.2852    0.6215 C   0  0  0  0  0  0  0  0  0  0  0  0
    2.8487   -0.1194    0.1803 C   0  0  0  0  0  0  0  0  0  0  0  0
    2.1226    0.9562   -0.3769 C   0  0  0  0  0  0  0  0  0  0  0  0
    4.2526   -0.0574    0.3200 C   0  0  0  0  0  0  0  0  0  0  0  0
    2.1879   -3.6055    1.5718 C   0  0  0  0  0  0  0  0  0  0  0  0
   -0.0335    2.0675   -1.0567 C   0  0  0  0  0  0  0  0  0  0  0  0
   -5.0223    3.2495   -2.4708 C   0  0  0  0  0  0  0  0  0  0  0  0
    5.0549    1.1424   -0.1217 C   0  0  0  0  0  0  0  0  0  0  0  0
   -3.0827    3.3736   -1.0167 C   0  0  0  0  0  0  0  0  0  0  0  0
   -3.8195    3.8626   -2.1054 C   0  0  0  0  0  0  0  0  0  0  0  0
   -5.4950    2.1490   -1.7497 C   0  0  0  0  0  0  0  0  0  0  0  0
   -4.7668    1.6621   -0.6604 C   0  0  0  0  0  0  0  0  0  0  0  0
   -3.5646    2.2738   -0.2919 C   0  0  0  0  0  0  0  0  0  0  0  0
    1.6725   -3.4847    3.0037 C   0  0  0  0  0  0  0  0  0  0  0  0
    0.0468   -0.2238   -0.0331 C   0  0  0  0  0  0  0  0  0  0  0  0
    4.9218   -1.1314    0.9035 C   0  0  0  0  0  0  0  0  0  0  0  0
    4.2236   -2.2619    1.3161 C   0  0  0  0  0  0  0  0  0  0  0  0
   -0.4544    2.9406    0.0408 N   0  0  0  0  0  0  0  0  0  0  0  0
   -1.8394    5.1400    0.5365 O   0  0  0  0  0  0  0  0  0  0  0  0
   -0.9597    4.8456   -1.7307 O   0  0  0  0  0  0  0  0  0  0  0  0
    4.8756   -3.2014    1.8510 O   0  0  0  0  0  0  0  0  0  0  0  0
   -1.5664    4.1386   -0.5498 S   0  0  0  0  0  6  0  0  0  0  0  0
    0.1423   -2.1224    0.8726 H   0  0  0  0  0  0  0  0  0  0  0  0
    2.6259    1.8527   -0.7141 H   0  0  0  0  0  0  0  0  0  0  0  0
    1.3687   -3.8817    0.8770 H   0  0  0  0  0  0  0  0  0  0  0  0
    2.8793   -4.4746    1.5170 H   0  0  0  0  0  0  0  0  0  0  0  0
   -0.9182    1.6863   -1.6130 H   0  0  0  0  0  0  0  0  0  0  0  0
    0.5972    2.6318   -1.7803 H   0  0  0  0  0  0  0  0  0  0  0  0
   -5.5882    3.6278   -3.3123 H   0  0  0  0  0  0  0  0  0  0  0  0
    6.1429    1.0004    0.0520 H   0  0  0  0  0  0  0  0  0  0  0  0
    4.9070    1.3158   -1.2084 H   0  0  0  0  0  0  0  0  0  0  0  0
    4.7340    2.0401    0.4475 H   0  0  0  0  0  0  0  0  0  0  0  0
   -3.4657    4.7158   -2.6697 H   0  0  0  0  0  0  0  0  0  0  0  0
   -6.4257    1.6752   -2.0337 H   0  0  0  0  0  0  0  0  0  0  0  0
   -5.1342    0.8114   -0.1011 H   0  0  0  0  0  0  0  0  0  0  0  0
   -3.0096    1.8894    0.5544 H   0  0  0  0  0  0  0  0  0  0  0  0
    0.9550   -2.6432    3.0937 H   0  0  0  0  0  0  0  0  0  0  0  0
    2.5210   -3.3095    3.6983 H   0  0  0  0  0  0  0  0  0  0  0  0
    1.1592   -4.4247    3.2962 H   0  0  0  0  0  0  0  0  0  0  0  0
   -1.0346   -0.2650   -0.0892 H   0  0  0  0  0  0  0  0  0  0  0  0
    5.9968   -1.0962    1.0403 H   0  0  0  0  0  0  0  0  0  0  0  0
    0.3885    3.4524    0.3909 H   0  0  0  0  0  0  0  0  0  0  0  0
  2  4  1  0
  3  4  2  0
  4  5  1  0
  5  6  2  0
  1  6  1  0
  5  7  1  0
  2  8  1  0
  1  9  1  0
  7 11  1  0
 10 13  2  0
 12 13  1  0
 10 14  1  0
 14 15  2  0
 12 16  2  0
 15 16  1  0
  8 17  1  0
  3 18  1  0
  1 18  2  0
  7 19  2  0
  2 20  1  0
 19 20  1  0
  9 21  1  0
 20 24  2  0
 21 25  1  0
 23 25  2  0
 12 25  1  0
 22 25  2  0
  3 26  1  0
  6 27  1  0
  8 28  1  0
  8 29  1  0
  9 30  1  0
  9 31  1  0
 10 32  1  0
 11 33  1  0
 11 34  1  0
 11 35  1  0
 13 36  1  0
 14 37  1  0
 15 38  1  0
 16 39  1  0
 17 40  1  0
 17 41  1  0
 17 42  1  0
 18 43  1  0
 19 44  1  0
 21 45  1  0
M  END
