7JG0_GAR_A_1101
     RDKit          3D

 18 18  0  0  0  0  0  0  0  0999 V2000
  -26.4414   13.0556   32.6751 C   0  0  1  0  0  0  0  0  0  0  0  0
  -26.6732   13.7750   33.8072 O   0  0  0  0  0  0  0  0  0  0  0  0
  -25.6593   13.8413   31.6135 C   0  0  1  0  0  0  0  0  0  0  0  0
  -24.6434   14.5027   32.2946 O   0  0  0  0  0  0  0  0  0  0  0  0
  -25.1026   12.6819   30.8128 C   0  0  1  0  0  0  0  0  0  0  0  0
  -25.3400   11.5157   31.5292 O   0  0  0  0  0  0  0  0  0  0  0  0
  -25.3892   11.9495   32.8467 C   0  0  2  0  0  0  0  0  0  0  0  0
  -25.8606   10.8955   33.8010 C   0  0  0  0  0  0  0  0  0  0  0  0
  -25.4125    9.6763   33.3703 O   0  0  0  0  0  0  0  0  0  0  0  0
  -25.7794   12.6890   29.5293 N   0  0  0  0  0  0  0  0  0  0  0  0
  -25.1664   12.2064   28.3359 C   0  0  0  0  0  0  0  0  0  0  0  0
  -23.9410   11.8746   28.2911 O   0  0  0  0  0  0  0  0  0  0  0  0
  -26.0060   12.0994   27.1295 C   0  0  0  0  0  0  0  0  0  0  0  0
  -25.3407   11.3967   26.0497 N   0  0  0  0  0  0  0  0  0  0  0  0
  -26.1213    8.4077   34.2543 P   0  0  2  0  0  5  0  0  0  0  0  0
  -25.0509    7.3624   34.4313 O   0  0  0  0  0  0  0  0  0  0  0  0
  -27.4273    7.7999   33.3699 O   0  0  0  0  0  0  0  0  0  0  0  0
  -26.6605    8.9407   35.7513 O   0  0  0  0  0  0  0  0  0  0  0  0
  1  2  1  1
  1  3  1  0
  3  4  1  1
  3  5  1  0
  5  6  1  0
  1  7  1  0
  7  6  1  6
  7  8  1  0
  8  9  1  6
  5 10  1  6
 10 11  1  0
 11 12  2  0
 11 13  1  0
 13 14  1  1
  9 15  1  0
 15 16  2  0
 15 17  1  6
 15 18  1  0
M  CHG  2  17  -1  18  -1
M  END
$$$$
