1Z95_198_A_501
     RDKit          3D

 43 44  0  0  0  0  0  0  0  0999 V2000
    5.3639    4.2877    4.7725 C   0  0  0  0  0  0  0  0  0  0  0  0
    5.6853    4.6802    3.4692 C   0  0  0  0  0  0  0  0  0  0  0  0
    4.8212    5.5173    2.7566 C   0  0  0  0  0  0  0  0  0  0  0  0
    5.1331    5.8962    1.4928 F   0  0  0  0  0  0  0  0  0  0  0  0
    3.6331    5.9598    3.3463 C   0  0  0  0  0  0  0  0  0  0  0  0
    3.3095    5.5685    4.6495 C   0  0  0  0  0  0  0  0  0  0  0  0
    4.1777    4.7363    5.3714 C   0  0  0  0  0  0  0  0  0  0  0  0
    3.7630    4.2245    7.0039 S   0  0  2  0  0  6  0  0  0  0  0  0
    2.6051    3.2678    6.9402 O   0  0  0  0  0  0  0  0  0  0  0  0
    3.3558    5.4285    7.8053 O   0  0  0  0  0  0  0  0  0  0  0  0
    5.2028    3.4239    7.7183 C   0  0  0  0  0  0  0  0  0  0  0  0
    6.5745    3.8542    7.1228 C   0  0  2  0  0  0  0  0  0  0  0  0
    7.1220    2.7935    6.3718 O   0  0  0  0  0  0  0  0  0  0  0  0
    7.5546    4.3192    8.2234 C   0  0  0  0  0  0  0  0  0  0  0  0
    6.3628    5.0279    6.1852 C   0  0  0  0  0  0  0  0  0  0  0  0
    5.9707    6.1362    6.6460 O   0  0  0  0  0  0  0  0  0  0  0  0
    6.7240    4.9194    4.7974 N   0  0  0  0  0  0  0  0  0  0  0  0
    5.8709    4.3477    3.7907 C   0  0  0  0  0  0  0  0  0  0  0  0
    4.6292    3.7772    4.1213 C   0  0  0  0  0  0  0  0  0  0  0  0
    6.3110    4.3067    2.4630 C   0  0  0  0  0  0  0  0  0  0  0  0
    5.5123    3.7399    1.4700 C   0  0  0  0  0  0  0  0  0  0  0  0
    4.2642    3.1919    1.7895 C   0  0  0  0  0  0  0  0  0  0  0  0
    3.4755    2.6145    0.7266 C   0  0  0  0  0  0  0  0  0  0  0  0
    2.8436    2.1519   -0.1256 N   0  0  0  0  0  0  0  0  0  0  0  0
    3.8081    3.2031    3.1295 C   0  0  0  0  0  0  0  0  0  0  0  0
    2.4686    2.5966    3.4997 C   0  0  1  0  0  0  0  0  0  0  0  0
    1.5423    2.7257    2.4789 F   0  0  0  0  0  0  0  0  0  0  0  0
    2.6280    1.2495    3.7711 F   0  0  0  0  0  0  0  0  0  0  0  0
    1.9685    3.2294    4.6233 F   0  0  0  0  0  0  0  0  0  0  0  0
    6.0368    3.6327    5.3114 H   0  0  0  0  0  0  0  0  0  0  0  0
    6.6028    4.3330    3.0119 H   0  0  0  0  0  0  0  0  0  0  0  0
    2.9610    6.6035    2.7937 H   0  0  0  0  0  0  0  0  0  0  0  0
    2.3828    5.9110    5.0920 H   0  0  0  0  0  0  0  0  0  0  0  0
    5.0710    2.3252    7.6131 H   0  0  0  0  0  0  0  0  0  0  0  0
    5.1908    3.6541    8.8062 H   0  0  0  0  0  0  0  0  0  0  0  0
    7.5889    2.1715    6.9880 H   0  0  0  0  0  0  0  0  0  0  0  0
    7.1038    5.1325    8.8324 H   0  0  0  0  0  0  0  0  0  0  0  0
    7.8357    3.4883    8.8995 H   0  0  0  0  0  0  0  0  0  0  0  0
    8.4924    4.7017    7.7653 H   0  0  0  0  0  0  0  0  0  0  0  0
    7.6191    5.3610    4.4873 H   0  0  0  0  0  0  0  0  0  0  0  0
    4.3180    3.7602    5.1568 H   0  0  0  0  0  0  0  0  0  0  0  0
    7.2734    4.7248    2.1954 H   0  0  0  0  0  0  0  0  0  0  0  0
    5.8710    3.7279    0.4474 H   0  0  0  0  0  0  0  0  0  0  0  0
  1  2  4  0
  2  3  4  0
  3  4  1  0
  3  5  4  0
  5  6  4  0
  1  7  4  0
  6  7  4  0
  7  8  1  0
  8  9  2  0
  8 10  2  0
  8 11  1  6
 11 12  1  0
 12 13  1  1
 12 14  1  0
 12 15  1  0
 15 16  2  0
 15 17  1  0
 17 18  1  0
 18 19  4  0
 18 20  4  0
 20 21  4  0
 21 22  4  0
 22 23  1  0
 23 24  3  0
 19 25  4  0
 22 25  4  0
 25 26  1  0
 26 27  1  1
 26 28  1  0
 26 29  1  0
  1 30  1  0
  2 31  1  0
  5 32  1  0
  6 33  1  0
 11 34  1  0
 11 35  1  0
 13 36  1  0
 14 37  1  0
 14 38  1  0
 14 39  1  0
 17 40  1  0
 19 41  1  0
 20 42  1  0
 21 43  1  0
M  END
