1YQY_915_A_782
     RDKit          3D

 42 43  0  0  0  0  0  0  0  0999 V2000
   11.3522   21.5104   27.7833 C   0  0  0  0  0  0  0  0  0  0  0  0
   11.1129   20.3540   28.5915 C   0  0  0  0  0  0  0  0  0  0  0  0
   10.0009   20.3419   29.4721 C   0  0  0  0  0  0  0  0  0  0  0  0
    9.1662   21.4873   29.4996 C   0  0  0  0  0  0  0  0  0  0  0  0
    9.3748   22.6328   28.6547 C   0  0  0  0  0  0  0  0  0  0  0  0
   10.4796   22.6352   27.8137 C   0  0  0  0  0  0  0  0  0  0  0  0
    8.1285   21.5176   30.3517 F   0  0  0  0  0  0  0  0  0  0  0  0
    9.7503   19.1667   30.3797 C   0  0  0  0  0  0  0  0  0  0  0  0
   12.7828   21.5563   26.7450 S   0  0  1  0  0  6  0  0  0  0  0  0
   12.9236   20.0135   25.9692 N   0  0  0  0  0  0  0  0  0  0  0  0
   12.1280   18.8917   26.4773 C   0  0  2  0  0  0  0  0  0  0  0  0
   12.7933   18.1616   27.6633 C   0  0  0  0  0  0  0  0  0  0  0  0
   13.7381   18.8945   28.3220 N   0  0  0  0  0  0  0  0  0  0  0  0
   13.3281   19.9902   29.0660 O   0  0  0  0  0  0  0  0  0  0  0  0
   12.5082   17.0509   28.0099 O   0  0  0  0  0  0  0  0  0  0  0  0
   12.5187   22.3873   25.6211 O   0  0  0  0  0  0  0  0  0  0  0  0
   13.9571   21.7321   27.5834 O   0  0  0  0  0  0  0  0  0  0  0  0
   11.8121   17.7952   25.4417 C   0  0  2  0  0  0  0  0  0  0  0  0
   11.0474   16.5328   25.9695 C   0  0  0  0  0  0  0  0  0  0  0  0
   10.7604   15.4752   24.9103 C   0  0  0  0  0  0  0  0  0  0  0  0
   11.9683   15.1009   24.2784 O   0  0  0  0  0  0  0  0  0  0  0  0
   12.6807   16.1795   23.6347 C   0  0  0  0  0  0  0  0  0  0  0  0
   13.0399   17.2709   24.6592 C   0  0  0  0  0  0  0  0  0  0  0  0
   11.7422   19.5380   28.5342 H   0  0  0  0  0  0  0  0  0  0  0  0
    8.7210   23.4312   28.6733 H   0  0  0  0  0  0  0  0  0  0  0  0
   10.6681   23.4516   27.2111 H   0  0  0  0  0  0  0  0  0  0  0  0
   10.4895   18.4138   30.2007 H   0  0  0  0  0  0  0  0  0  0  0  0
    9.8055   19.4855   31.3995 H   0  0  0  0  0  0  0  0  0  0  0  0
    8.7779   18.7658   30.1837 H   0  0  0  0  0  0  0  0  0  0  0  0
   12.6654   20.1451   24.9913 H   0  0  0  0  0  0  0  0  0  0  0  0
   11.2247   19.3844   26.7712 H   0  0  0  0  0  0  0  0  0  0  0  0
   14.6904   18.6503   28.2699 H   0  0  0  0  0  0  0  0  0  0  0  0
   12.3642   20.0804   29.0044 H   0  0  0  0  0  0  0  0  0  0  0  0
   11.1598   18.3484   24.7986 H   0  0  0  0  0  0  0  0  0  0  0  0
   11.6383   16.0821   26.7392 H   0  0  0  0  0  0  0  0  0  0  0  0
   10.0966   16.8784   26.3180 H   0  0  0  0  0  0  0  0  0  0  0  0
   10.3193   14.6171   25.3733 H   0  0  0  0  0  0  0  0  0  0  0  0
   10.0857   15.8741   24.1819 H   0  0  0  0  0  0  0  0  0  0  0  0
   13.5791   15.7971   23.1970 H   0  0  0  0  0  0  0  0  0  0  0  0
   12.0561   16.6057   22.8777 H   0  0  0  0  0  0  0  0  0  0  0  0
   13.4887   18.0916   24.1396 H   0  0  0  0  0  0  0  0  0  0  0  0
   13.7089   16.8334   25.3705 H   0  0  0  0  0  0  0  0  0  0  0  0
  1  2  2  0
  2  3  1  0
  3  4  2  0
  4  5  1  0
  1  6  1  0
  5  6  2  0
  4  7  1  0
  3  8  1  0
  1  9  1  0
  9 10  1  1
 11 10  1  0
 11 12  1  0
 12 13  1  0
 13 14  1  0
 12 15  2  0
  9 16  2  0
  9 17  2  0
 11 18  1  0
 18 19  1  0
 19 20  1  0
 20 21  1  0
 21 22  1  0
 18 23  1  0
 22 23  1  0
  2 24  1  0
  5 25  1  0
  6 26  1  0
  8 27  1  0
  8 28  1  0
  8 29  1  0
 10 30  1  0
 11 31  1  6
 13 32  1  0
 14 33  1  0
 18 34  1  1
 19 35  1  0
 19 36  1  0
 20 37  1  0
 20 38  1  0
 22 39  1  0
 22 40  1  0
 23 41  1  0
 23 42  1  0
M  END
