7WDT_NGS_A_901
     RDKit          3D

 19 19  0  0  0  0  0  0  0  0999 V2000
   24.7030   -5.8600   -5.6690 C   0  0  2  0  0  0  0  0  0  0  0  0
   24.0840   -4.7840   -6.5580 C   0  0  1  0  0  0  0  0  0  0  0  0
   22.6210   -4.5890   -6.1760 C   0  0  2  0  0  0  0  0  0  0  0  0
   22.0500   -5.8010   -5.4570 C   0  0  1  0  0  0  0  0  0  0  0  0
   22.8140   -6.0700   -4.1630 C   0  0  1  0  0  0  0  0  0  0  0  0
   22.3450   -7.3160   -3.4660 C   0  0  0  0  0  0  0  0  0  0  0  0
   24.3950   -7.0130   -6.3920 O   0  0  0  0  0  0  0  0  0  0  0  0
   21.9090   -4.3610   -7.3840 O   0  0  0  0  0  0  0  0  0  0  0  0
   24.2260   -6.2370   -4.3840 O   0  0  0  0  0  0  0  0  0  0  0  0
   22.9170   -7.3160   -2.1720 O   0  0  0  0  0  0  0  0  0  0  0  0
   24.7620   -3.5080   -6.5810 N   0  0  0  0  0  0  0  0  0  0  0  0
   25.2150   -2.9710   -5.4340 C   0  0  0  0  0  0  0  0  0  0  0  0
   25.0940   -3.5620   -4.3570 O   0  0  0  0  0  0  0  0  0  0  0  0
   25.9190   -1.6480   -5.5460 C   0  0  0  0  0  0  0  0  0  0  0  0
   23.0100   -8.6970   -1.4440 S   0  0  0  0  0  0  0  0  0  0  0  0
   21.7170   -9.2980   -1.6020 O   0  0  0  0  0  0  0  0  0  0  0  0
   23.3930   -8.4090   -0.1040 O   0  0  0  0  0  0  0  0  0  0  0  0
   24.0310   -9.4130   -2.1390 O   0  0  0  0  0  0  0  0  0  0  0  0
   20.6800   -5.5520   -5.1640 O   0  0  0  0  0  0  0  0  0  0  0  0
  1  2  1  0
  2  3  1  0
  3  4  1  0
  4  5  1  0
  5  6  1  6
  1  7  1  6
  3  8  1  6
  1  9  1  0
  5  9  1  0
  6 10  1  0
  2 11  1  1
 11 12  1  0
 12 13  2  0
 12 14  1  0
 10 15  1  0
 15 16  2  0
 15 17  1  0
 15 18  2  0
  4 19  1  1
M  END
$$$$
