7TXK_LW8_A_601
     RDKit          3D

 15 15  0  0  0  0  0  0  0  0999 V2000
   29.3986   44.1528   91.1870 O   0  0  0  0  0  0  0  0  0  0  0  0
   30.3297   43.0980   91.2512 C   0  0  0  0  0  0  0  0  0  0  0  0
   29.9462   42.0140   90.7412 O   0  0  0  0  0  0  0  0  0  0  0  0
   31.6377   43.3142   91.8820 C   0  0  1  0  0  0  0  0  0  0  0  0
   32.2026   42.0751   92.4102 N   0  0  1  0  0  0  0  0  0  0  0  0
   31.1311   41.4440   93.1929 C   0  0  0  0  0  0  0  0  0  0  0  0
   32.5530   41.1958   91.3330 C   0  0  0  0  0  0  0  0  0  0  0  0
   33.3757   42.2934   93.2169 C   0  0  0  0  0  0  0  0  0  0  0  0
   32.6606   43.9472   90.9671 C   0  0  0  0  0  0  0  0  0  0  0  0
   32.1778   45.2128   90.3683 C   0  0  0  0  0  0  0  0  0  0  0  0
   31.1688   45.4613   89.5341 N   0  0  0  0  0  0  0  0  0  0  0  0
   31.0913   46.7784   89.2452 C   0  0  0  0  0  0  0  0  0  0  0  0
   30.0121   47.5123   88.2720 S   0  0  0  0  0  0  0  0  0  0  0  0
   32.0993   47.3738   89.9325 N   0  0  0  0  0  0  0  0  0  0  0  0
   32.7781   46.4471   90.6252 C   0  0  0  0  0  0  0  0  0  0  0  0
  1  2  1  0
  2  3  2  0
  2  4  1  0
  4  5  1  0
  5  6  1  1
  5  7  1  0
  5  8  1  0
  4  9  1  6
  9 10  1  0
 10 11  1  0
 11 12  1  0
 12 13  2  0
 12 14  1  0
 10 15  2  0
 14 15  1  0
M  CHG  1   5   1
M  END
$$$$
