7TB0_UD1_D_501
     RDKit          3D

 66 68  0  0  0  0  0  0  0  0999 V2000
    2.0080    1.4597    1.0357 C   0  0  1  0  0  0  0  0  0  0  0  0
    2.0338    0.1212    0.2548 C   0  0  1  0  0  0  0  0  0  0  0  0
    2.1309    0.3924   -1.2603 C   0  0  2  0  0  0  0  0  0  0  0  0
    3.2774    1.3718   -1.5714 C   0  0  1  0  0  0  0  0  0  0  0  0
    3.2800    2.5933   -0.6153 C   0  0  1  0  0  0  0  0  0  0  0  0
    2.2809    3.7024   -1.0162 C   0  0  0  0  0  0  0  0  0  0  0  0
    3.1771   -2.1444    0.4998 C   0  0  0  0  0  0  0  0  0  0  0  0
    4.3245   -2.9486    1.0187 C   0  0  0  0  0  0  0  0  0  0  0  0
    3.1504   -0.7208    0.7070 N   0  0  0  0  0  0  0  0  0  0  0  0
    2.0067    1.2119    2.4318 O   0  0  0  0  0  0  0  0  0  0  0  0
    0.9167    0.9169   -1.7383 O   0  0  0  0  0  0  0  0  0  0  0  0
    4.5014    0.6872   -1.4612 O   0  0  0  0  0  0  0  0  0  0  0  0
    3.1714    2.2213    0.7529 O   0  0  0  0  0  0  0  0  0  0  0  0
    2.2730    4.7281   -0.0579 O   0  0  0  0  0  0  0  0  0  0  0  0
    2.2205   -2.7269   -0.0814 O   0  0  0  0  0  0  0  0  0  0  0  0
   -1.8946   -3.2148   -1.6553 N   0  0  0  0  0  0  0  0  0  0  0  0
   -0.7637   -3.0168   -2.4194 C   0  0  0  0  0  0  0  0  0  0  0  0
    0.2212   -3.9582   -2.4565 N   0  0  0  0  0  0  0  0  0  0  0  0
    0.0984   -5.1321   -1.7894 C   0  0  0  0  0  0  0  0  0  0  0  0
   -1.0584   -5.3964   -1.0691 C   0  0  0  0  0  0  0  0  0  0  0  0
   -2.0589   -4.4286   -1.0294 C   0  0  0  0  0  0  0  0  0  0  0  0
   -0.6262   -1.9683   -3.1070 O   0  0  0  0  0  0  0  0  0  0  0  0
    1.0232   -5.9872   -1.8349 O   0  0  0  0  0  0  0  0  0  0  0  0
   -2.9551   -2.1681   -1.6263 C   0  0  1  0  0  0  0  0  0  0  0  0
   -3.9924   -2.3278   -0.5097 C   0  0  2  0  0  0  0  0  0  0  0  0
   -5.0522   -3.1577   -0.9134 O   0  0  0  0  0  0  0  0  0  0  0  0
   -4.4430   -0.9069   -0.2666 C   0  0  1  0  0  0  0  0  0  0  0  0
   -3.1997   -0.0950   -0.6521 C   0  0  2  0  0  0  0  0  0  0  0  0
   -2.3713   -0.8856   -1.4824 O   0  0  0  0  0  0  0  0  0  0  0  0
   -5.5562   -0.5622   -1.0588 O   0  0  0  0  0  0  0  0  0  0  0  0
   -2.3937    0.3346    0.5804 C   0  0  0  0  0  0  0  0  0  0  0  0
   -3.1388    1.2669    1.3286 O   0  0  0  0  0  0  0  0  0  0  0  0
   -2.2701    1.6364    2.7511 P   0  0  2  0  0  5  0  0  0  0  0  0
   -2.3623    0.4714    3.7147 O   0  0  0  0  0  0  0  0  0  0  0  0
   -3.0016    2.9768    3.4780 O   0  0  0  0  0  0  0  0  0  0  0  0
   -0.6641    2.0692    2.3487 O   0  0  0  0  0  0  0  0  0  0  0  0
    0.4220    0.9327    3.0139 P   0  0  1  0  0  5  0  0  0  0  0  0
    0.0153   -0.4846    2.6698 O   0  0  0  0  0  0  0  0  0  0  0  0
    0.4442    1.1220    4.6984 O   0  0  0  0  0  0  0  0  0  0  0  0
    1.1130    2.0465    0.7353 H   0  0  0  0  0  0  0  0  0  0  0  0
    1.0822   -0.4201    0.4428 H   0  0  0  0  0  0  0  0  0  0  0  0
    2.3350   -0.5665   -1.7970 H   0  0  0  0  0  0  0  0  0  0  0  0
    3.1546    1.7261   -2.6240 H   0  0  0  0  0  0  0  0  0  0  0  0
    4.2813    3.0659   -0.7239 H   0  0  0  0  0  0  0  0  0  0  0  0
    2.5601    4.1159   -2.0128 H   0  0  0  0  0  0  0  0  0  0  0  0
    1.2513    3.3086   -1.1144 H   0  0  0  0  0  0  0  0  0  0  0  0
    4.3598   -3.9432    0.5207 H   0  0  0  0  0  0  0  0  0  0  0  0
    4.2048   -3.0913    2.1148 H   0  0  0  0  0  0  0  0  0  0  0  0
    5.2799   -2.4152    0.8185 H   0  0  0  0  0  0  0  0  0  0  0  0
    3.9295   -0.2917    1.2568 H   0  0  0  0  0  0  0  0  0  0  0  0
    0.2666    0.1641   -1.7570 H   0  0  0  0  0  0  0  0  0  0  0  0
    5.1680    1.1928   -1.9962 H   0  0  0  0  0  0  0  0  0  0  0  0
    3.1216    5.2313   -0.1729 H   0  0  0  0  0  0  0  0  0  0  0  0
    1.0816   -3.7792   -3.0247 H   0  0  0  0  0  0  0  0  0  0  0  0
   -1.1892   -6.3382   -0.5503 H   0  0  0  0  0  0  0  0  0  0  0  0
   -2.9657   -4.6813   -0.4963 H   0  0  0  0  0  0  0  0  0  0  0  0
   -3.4842   -2.1924   -2.6068 H   0  0  0  0  0  0  0  0  0  0  0  0
   -3.5144   -2.7084    0.4242 H   0  0  0  0  0  0  0  0  0  0  0  0
   -5.5872   -3.3433   -0.0995 H   0  0  0  0  0  0  0  0  0  0  0  0
   -4.7233   -0.7720    0.8013 H   0  0  0  0  0  0  0  0  0  0  0  0
   -3.4926    0.8217   -1.2118 H   0  0  0  0  0  0  0  0  0  0  0  0
   -5.2894   -0.6038   -2.0129 H   0  0  0  0  0  0  0  0  0  0  0  0
   -1.4448    0.7977    0.2280 H   0  0  0  0  0  0  0  0  0  0  0  0
   -2.1586   -0.5735    1.1806 H   0  0  0  0  0  0  0  0  0  0  0  0
   -3.9684    2.7656    3.4843 H   0  0  0  0  0  0  0  0  0  0  0  0
    0.1669    0.2439    5.0669 H   0  0  0  0  0  0  0  0  0  0  0  0
  1  2  1  0
  2  3  1  0
  3  4  1  0
  4  5  1  0
  5  6  1  0
  7  8  1  0
  2  9  1  0
  7  9  1  0
  1 10  1  0
  3 11  1  0
  4 12  1  0
  1 13  1  0
  5 13  1  0
  6 14  1  0
  7 15  2  0
 16 17  1  0
 17 18  1  0
 18 19  1  0
 19 20  1  0
 16 21  1  0
 20 21  2  0
 17 22  2  0
 19 23  2  0
 24 16  1  0
 24 25  1  0
 25 26  1  0
 25 27  1  0
 27 28  1  0
 24 29  1  0
 28 29  1  0
 27 30  1  0
 28 31  1  0
 31 32  1  0
 33 32  1  6
 33 34  2  0
 33 35  1  0
 33 36  1  0
 37 10  1  6
 36 37  1  0
 37 38  2  0
 37 39  1  0
  1 40  1  6
  2 41  1  6
  3 42  1  6
  4 43  1  6
  5 44  1  1
  6 45  1  0
  6 46  1  0
  8 47  1  0
  8 48  1  0
  8 49  1  0
  9 50  1  0
 11 51  1  0
 12 52  1  0
 14 53  1  0
 18 54  1  0
 20 55  1  0
 21 56  1  0
 24 57  1  6
 25 58  1  1
 26 59  1  0
 27 60  1  1
 28 61  1  6
 30 62  1  0
 31 63  1  0
 31 64  1  0
 35 65  1  0
 39 66  1  0
M  END
