1MEH_MOA_A_600
     RDKit          3D

 23 24  0  0  0  0  0  0  0  0999 V2000
   62.3613   52.0007   16.9820 C   0  0  0  0  0  0  0  0  0  0  0  0
   62.0105   58.0851   17.4368 C   0  0  0  0  0  0  0  0  0  0  0  0
   61.7282   59.4081   17.5051 C   0  0  0  0  0  0  0  0  0  0  0  0
   62.8329   60.3063   18.0452 C   0  0  0  0  0  0  0  0  0  0  0  0
   62.9217   60.1683   19.5710 C   0  0  0  0  0  0  0  0  0  0  0  0
   62.7287   58.7464   20.0699 C   0  0  0  0  0  0  0  0  0  0  0  0
   60.4855   54.0288   21.0800 C   0  0  0  0  0  0  0  0  0  0  0  0
   61.2654   57.3524   20.4194 C   0  0  0  0  0  0  0  0  0  0  0  0
   60.3933   60.0313   17.0761 C   0  0  0  0  0  0  0  0  0  0  0  0
   61.7064   51.6947   19.2366 C   0  0  0  0  0  0  0  0  0  0  0  0
   61.4537   53.1356   18.8498 C   0  0  0  0  0  0  0  0  0  0  0  0
   60.9089   54.2222   19.6414 C   0  0  0  0  0  0  0  0  0  0  0  0
   60.7783   55.5130   18.9924 C   0  0  0  0  0  0  0  0  0  0  0  0
   61.1859   55.6774   17.6136 C   0  0  0  0  0  0  0  0  0  0  0  0
   61.7233   54.5695   16.8732 C   0  0  0  0  0  0  0  0  0  0  0  0
   61.8446   53.3071   17.5196 C   0  0  0  0  0  0  0  0  0  0  0  0
   61.0415   57.0291   16.9230 C   0  0  0  0  0  0  0  0  0  0  0  0
   62.7838   51.7252   15.9024 O   0  0  0  0  0  0  0  0  0  0  0  0
   62.2597   51.1335   17.9936 O   0  0  0  0  0  0  0  0  0  0  0  0
   60.2595   56.5596   19.7170 O   0  0  0  0  0  0  0  0  0  0  0  0
   62.1061   54.7530   15.5553 O   0  0  0  0  0  0  0  0  0  0  0  0
   63.6959   58.1711   20.6232 O   0  0  0  0  0  0  0  0  0  0  0  0
   61.6105   58.2086   19.8995 O   0  0  0  0  0  0  0  0  0  0  0  0
  2  3  2  0
  3  4  1  0
  4  5  1  0
  5  6  1  0
  3  9  1  0
 10 11  1  0
  7 12  1  0
 11 12  1  0
 12 13  2  0
 13 14  1  0
 14 15  2  0
  1 16  1  0
 11 16  2  0
 15 16  1  0
  2 17  1  0
 14 17  1  0
  1 18  2  0
  1 19  1  0
 10 19  1  0
  8 20  1  0
 13 20  1  0
 15 21  1  0
  6 22  1  0
  6 23  2  0
M  END
