7NF0_BYN_B_702
     RDKit          3D

 68 71  0  0  0  0  0  0  0  0999 V2000
   12.4482   29.3064   42.2004 C   0  0  0  0  0  0  0  0  0  0  0  0
   13.3510   29.6694   41.2590 N   0  0  0  0  0  4  0  0  0  0  0  0
   13.8733   28.7361   40.3728 C   0  0  0  0  0  0  0  0  0  0  0  0
   13.3883   27.4584   40.5081 C   0  0  0  0  0  0  0  0  0  0  0  0
   12.4632   27.1429   41.5260 C   0  0  0  0  0  0  0  0  0  0  0  0
   11.9347   28.1214   42.3230 N   0  0  0  0  0  0  0  0  0  0  0  0
   13.7707   26.4049   39.6619 N   0  0  0  0  0  0  0  0  0  0  0  0
   13.6222   25.0970   40.0917 C   0  0  0  0  0  0  0  0  0  0  0  0
   12.7825   24.8132   41.1902 C   0  0  0  0  0  0  0  0  0  0  0  0
   12.0582   25.8477   41.7682 N   0  0  0  0  0  0  0  0  0  0  0  0
   14.3436   24.0492   39.4381 C   0  0  0  0  0  0  0  0  0  0  0  0
   14.2116   22.7343   39.9092 C   0  0  0  0  0  0  0  0  0  0  0  0
   13.3008   22.4508   40.9389 C   0  0  0  0  0  0  0  0  0  0  0  0
   12.6666   23.4893   41.6224 C   0  0  0  0  0  0  0  0  0  0  0  0
   14.0948   26.7334   38.2821 C   0  0  1  0  0  0  0  0  0  0  0  0
   14.4366   25.5162   37.4651 C   0  0  0  0  0  0  0  0  0  0  0  0
   15.2532   24.5109   38.3020 C   0  0  2  0  0  0  0  0  0  0  0  0
   12.1046   30.3033   43.0433 O   0  0  0  0  0  0  0  0  0  0  0  0
   13.0561   21.0400   41.3850 C   0  0  0  0  0  0  0  0  0  0  0  0
   14.9277   21.5521   39.2589 C   0  0  0  0  0  0  0  0  0  0  0  0
   13.1828   27.5695   37.7064 O   0  0  0  0  0  0  0  0  0  0  0  0
   15.7266   23.4536   37.3186 C   0  0  0  0  0  0  0  0  0  0  0  0
   16.5144   25.1566   38.9195 C   0  0  0  0  0  0  0  0  0  0  0  0
   10.9381   25.5954   42.6686 C   0  0  0  0  0  0  0  0  0  0  0  0
   14.7944   29.1110   39.6846 O   0  0  0  0  0  0  0  0  0  0  0  0
   10.6306   26.7152   43.6634 C   0  0  1  0  0  0  0  0  0  0  0  0
   10.2850   26.1092   45.0311 C   0  0  1  0  0  0  0  0  0  0  0  0
    9.1051   25.1311   44.9959 C   0  0  1  0  0  0  0  0  0  0  0  0
    7.7994   25.7661   44.6215 C   0  0  0  0  0  0  0  0  0  0  0  0
   11.7557   27.6156   43.8107 O   0  0  0  0  0  0  0  0  0  0  0  0
   11.4698   25.4279   45.5340 O   0  0  0  0  0  0  0  0  0  0  0  0
    9.4016   24.0493   44.1078 O   0  0  0  0  0  0  0  0  0  0  0  0
    7.4660   26.8086   45.6473 O   0  0  0  0  0  0  0  0  0  0  0  0
    8.6768   27.4015   46.5328 P   0  0  2  0  0  5  0  0  0  0  0  0
    9.8060   27.4981   45.4534 O   0  0  0  0  0  0  0  0  0  0  0  0
    9.0216   26.3696   47.5053 O   0  0  0  0  0  0  0  0  0  0  0  0
    8.2427   28.6633   47.1285 O   0  0  0  0  0  0  0  0  0  0  0  0
   13.6415   30.6083   41.2019 H   0  0  0  0  0  0  0  0  0  0  0  0
   12.1032   23.2761   42.4603 H   0  0  0  0  0  0  0  0  0  0  0  0
   14.9977   27.3071   38.3041 H   0  0  0  0  0  0  0  0  0  0  0  0
   15.0124   25.8146   36.6141 H   0  0  0  0  0  0  0  0  0  0  0  0
   13.5282   25.0456   37.1517 H   0  0  0  0  0  0  0  0  0  0  0  0
   12.4841   31.1540   42.9421 H   0  0  0  0  0  0  0  0  0  0  0  0
   13.6106   20.3683   40.7635 H   0  0  0  0  0  0  0  0  0  0  0  0
   12.0123   20.8176   41.3081 H   0  0  0  0  0  0  0  0  0  0  0  0
   13.3709   20.9277   42.4014 H   0  0  0  0  0  0  0  0  0  0  0  0
   15.5871   21.9102   38.4962 H   0  0  0  0  0  0  0  0  0  0  0  0
   14.2056   20.8925   38.8251 H   0  0  0  0  0  0  0  0  0  0  0  0
   15.4922   21.0255   39.9999 H   0  0  0  0  0  0  0  0  0  0  0  0
   12.3248   27.1209   37.6477 H   0  0  0  0  0  0  0  0  0  0  0  0
   14.8791   22.9810   36.8675 H   0  0  0  0  0  0  0  0  0  0  0  0
   16.3100   22.7209   37.8360 H   0  0  0  0  0  0  0  0  0  0  0  0
   16.3240   23.9142   36.5597 H   0  0  0  0  0  0  0  0  0  0  0  0
   16.2223   25.9102   39.6208 H   0  0  0  0  0  0  0  0  0  0  0  0
   17.1039   25.6001   38.1444 H   0  0  0  0  0  0  0  0  0  0  0  0
   17.0900   24.4067   39.4207 H   0  0  0  0  0  0  0  0  0  0  0  0
   11.1566   24.7089   43.2266 H   0  0  0  0  0  0  0  0  0  0  0  0
   10.0727   25.5091   42.0453 H   0  0  0  0  0  0  0  0  0  0  0  0
    9.7994   27.2733   43.2859 H   0  0  0  0  0  0  0  0  0  0  0  0
    9.9817   26.9107   45.6718 H   0  0  0  0  0  0  0  0  0  0  0  0
    8.9800   24.7710   45.9957 H   0  0  0  0  0  0  0  0  0  0  0  0
    7.0300   25.0229   44.5988 H   0  0  0  0  0  0  0  0  0  0  0  0
    7.8743   26.2151   43.6531 H   0  0  0  0  0  0  0  0  0  0  0  0
   12.5197   27.1253   44.1527 H   0  0  0  0  0  0  0  0  0  0  0  0
   11.7121   24.7105   44.9276 H   0  0  0  0  0  0  0  0  0  0  0  0
    9.5121   24.3915   43.2069 H   0  0  0  0  0  0  0  0  0  0  0  0
    9.2988   25.5655   47.0391 H   0  0  0  0  0  0  0  0  0  0  0  0
    8.0316   29.2972   46.4253 H   0  0  0  0  0  0  0  0  0  0  0  0
  1  2  4  0
  2  3  4  0
  3  4  4  0
  4  5  4  0
  5  6  4  0
  1  6  4  0
  4  7  1  0
  7  8  1  0
  8  9  4  0
  9 10  1  0
  5 10  1  0
  8 11  4  0
 11 12  4  0
 12 13  4  0
 13 14  4  0
  9 14  4  0
  7 15  1  0
 15 16  1  0
 11 17  1  0
 16 17  1  0
  1 18  1  0
 13 19  1  0
 12 20  1  0
 15 21  1  0
 17 22  1  6
 17 23  1  0
 10 24  1  0
  3 25  2  0
 24 26  1  0
 26 27  1  0
 27 28  1  0
 28 29  1  0
 26 30  1  0
 27 31  1  0
 28 32  1  0
 29 33  1  0
 34 33  1  6
 34 35  2  0
 34 36  1  0
 34 37  1  0
  2 38  1  0
 14 39  1  0
 15 40  1  1
 16 41  1  0
 16 42  1  0
 18 43  1  0
 19 44  1  0
 19 45  1  0
 19 46  1  0
 20 47  1  0
 20 48  1  0
 20 49  1  0
 21 50  1  0
 22 51  1  0
 22 52  1  0
 22 53  1  0
 23 54  1  0
 23 55  1  0
 23 56  1  0
 24 57  1  0
 24 58  1  0
 26 59  1  6
 27 60  1  1
 28 61  1  1
 29 62  1  0
 29 63  1  0
 30 64  1  0
 31 65  1  0
 32 66  1  0
 36 67  1  0
 37 68  1  0
M  CHG  1   2   1
M  END
