7NF0_BYN_B_702
     RDKit          3D

 37 40  0  0  0  0  0  0  0  0999 V2000
   12.2640   29.6260   42.1790 C   0  0  0  0  0  0  0  0  0  0  0  0
   13.2070   29.9230   41.2540 N   0  0  0  0  0  0  0  0  0  0  0  0
   13.7240   28.9400   40.4200 C   0  0  0  0  0  0  0  0  0  0  0  0
   13.1920   27.6850   40.5870 C   0  0  0  0  0  0  0  0  0  0  0  0
   12.2260   27.4390   41.5860 C   0  0  0  0  0  0  0  0  0  0  0  0
   11.7070   28.4640   42.3290 N   0  0  0  0  0  0  0  0  0  0  0  0
   13.5640   26.5880   39.7930 N   0  0  0  0  0  0  0  0  0  0  0  0
   13.3580   25.3030   40.2660 C   0  0  0  0  0  0  0  0  0  0  0  0
   12.4760   25.0890   41.3470 C   0  0  0  0  0  0  0  0  0  0  0  0
   11.7700   26.1680   41.8630 N   0  0  0  0  0  0  0  0  0  0  0  0
   14.0630   24.2080   39.6750 C   0  0  0  0  0  0  0  0  0  0  0  0
   13.8720   22.9170   40.1900 C   0  0  0  0  0  0  0  0  0  0  0  0
   12.9210   22.7030   41.2000 C   0  0  0  0  0  0  0  0  0  0  0  0
   12.3020   23.7870   41.8240 C   0  0  0  0  0  0  0  0  0  0  0  0
   13.9410   26.8530   38.4130 C   0  0  1  0  0  0  0  0  0  0  0  0
   14.2660   25.5950   37.6530 C   0  0  0  0  0  0  0  0  0  0  0  0
   15.0220   24.5960   38.5520 C   0  0  0  0  0  0  0  0  0  0  0  0
   11.9290   30.6650   42.9730 O   0  0  0  0  0  0  0  0  0  0  0  0
   12.6150   21.3190   41.6900 C   0  0  0  0  0  0  0  0  0  0  0  0
   14.5670   21.6880   39.6070 C   0  0  0  0  0  0  0  0  0  0  0  0
   13.0760   27.6960   37.7780 O   0  0  0  0  0  0  0  0  0  0  0  0
   15.4890   23.4870   37.6240 C   0  0  0  0  0  0  0  0  0  0  0  0
   16.2850   25.2230   39.1850 C   0  0  0  0  0  0  0  0  0  0  0  0
   10.6150   25.9870   42.7360 C   0  0  0  0  0  0  0  0  0  0  0  0
   14.6780   29.2580   39.7480 O   0  0  0  0  0  0  0  0  0  0  0  0
   10.8730   26.2270   44.2240 C   0  0  1  0  0  0  0  0  0  0  0  0
    9.5880   25.9580   45.0200 C   0  0  1  0  0  0  0  0  0  0  0  0
    9.7740   26.0270   46.5400 C   0  0  1  0  0  0  0  0  0  0  0  0
   10.4310   27.2880   47.0160 C   0  0  0  0  0  0  0  0  0  0  0  0
   11.9310   25.3720   44.7220 O   0  0  0  0  0  0  0  0  0  0  0  0
    8.5890   26.9330   44.6050 O   0  0  0  0  0  0  0  0  0  0  0  0
    8.5110   25.8520   47.1890 O   0  0  0  0  0  0  0  0  0  0  0  0
   10.7220   27.1490   48.4810 O   0  0  0  0  0  0  0  0  0  0  0  0
   10.0460   28.2170   49.4830 P   0  0  0  0  0  0  0  0  0  0  0  0
   10.7800   27.8660   50.8200 O   0  0  0  0  0  0  0  0  0  0  0  0
    8.6380   27.8490   49.5910 O   0  0  0  0  0  0  0  0  0  0  0  0
   10.2740   29.5600   48.9540 O   0  0  0  0  0  0  0  0  0  0  0  0
  1  2  1  0
  2  3  1  0
  3  4  1  0
  4  5  2  0
  5  6  1  0
  1  6  2  0
  4  7  1  0
  7  8  1  0
  8  9  2  0
  9 10  1  0
  5 10  1  0
  8 11  1  0
 11 12  2  0
 12 13  1  0
 13 14  2  0
  9 14  1  0
  7 15  1  0
 15 16  1  0
 11 17  1  0
 16 17  1  0
  1 18  1  0
 13 19  1  0
 12 20  1  0
 15 21  1  6
 17 22  1  0
 17 23  1  0
 10 24  1  0
  3 25  2  0
 24 26  1  0
 26 27  1  0
 27 28  1  0
 28 29  1  0
 26 30  1  1
 27 31  1  6
 28 32  1  1
 29 33  1  0
 33 34  1  0
 34 35  2  0
 34 36  1  0
 34 37  1  0
M  END
$$$$
7NF0_BYN_A_702
     RDKit          3D

 37 40  0  0  0  0  0  0  0  0999 V2000
  -25.3310   10.8060   13.8400 C   0  0  0  0  0  0  0  0  0  0  0  0
  -25.9210    9.9070   14.6340 N   0  0  0  0  0  0  0  0  0  0  0  0
  -25.2700    8.8460   15.2160 C   0  0  0  0  0  0  0  0  0  0  0  0
  -23.9190    8.7550   14.9400 C   0  0  0  0  0  0  0  0  0  0  0  0
  -23.3940    9.6390   14.0090 C   0  0  0  0  0  0  0  0  0  0  0  0
  -24.0700   10.6810   13.4720 N   0  0  0  0  0  0  0  0  0  0  0  0
  -23.1100    7.7500   15.5030 N   0  0  0  0  0  0  0  0  0  0  0  0
  -21.9230    7.3680   14.8220 C   0  0  0  0  0  0  0  0  0  0  0  0
  -21.4450    8.2030   13.8180 C   0  0  0  0  0  0  0  0  0  0  0  0
  -22.1000    9.4290   13.5280 N   0  0  0  0  0  0  0  0  0  0  0  0
  -21.2760    6.1830   15.2000 C   0  0  0  0  0  0  0  0  0  0  0  0
  -20.1060    5.8110   14.5020 C   0  0  0  0  0  0  0  0  0  0  0  0
  -19.6180    6.6430   13.4950 C   0  0  0  0  0  0  0  0  0  0  0  0
  -20.2990    7.8040   13.1320 C   0  0  0  0  0  0  0  0  0  0  0  0
  -23.3450    7.3680   16.8620 C   0  0  1  0  0  0  0  0  0  0  0  0
  -22.3870    6.3230   17.3820 C   0  0  0  0  0  0  0  0  0  0  0  0
  -21.9660    5.3520   16.2880 C   0  0  0  0  0  0  0  0  0  0  0  0
  -26.0980   11.6610   13.2140 O   0  0  0  0  0  0  0  0  0  0  0  0
  -18.3110    6.3020   12.8120 C   0  0  0  0  0  0  0  0  0  0  0  0
  -19.3250    4.5500   14.7970 C   0  0  0  0  0  0  0  0  0  0  0  0
  -23.5430    8.4640   17.6740 O   0  0  0  0  0  0  0  0  0  0  0  0
  -21.2140    4.2130   16.9790 C   0  0  0  0  0  0  0  0  0  0  0  0
  -23.1800    4.6830   15.6360 C   0  0  0  0  0  0  0  0  0  0  0  0
  -21.4500   10.4860   12.7450 C   0  0  0  0  0  0  0  0  0  0  0  0
  -25.9190    8.0850   15.9200 O   0  0  0  0  0  0  0  0  0  0  0  0
  -21.8980   10.6250   11.2930 C   0  0  1  0  0  0  0  0  0  0  0  0
  -21.1390   11.7410   10.5790 C   0  0  1  0  0  0  0  0  0  0  0  0
  -21.4120   11.8160    9.0930 C   0  0  1  0  0  0  0  0  0  0  0  0
  -22.8600   11.9880    8.7620 C   0  0  0  0  0  0  0  0  0  0  0  0
  -21.7440    9.3830   10.6000 O   0  0  0  0  0  0  0  0  0  0  0  0
  -21.4570   12.9700   11.2820 O   0  0  0  0  0  0  0  0  0  0  0  0
  -20.6910   12.9620    8.5690 O   0  0  0  0  0  0  0  0  0  0  0  0
  -23.0150   11.9030    7.3180 O   0  0  0  0  0  0  0  0  0  0  0  0
  -23.6950   13.1190    6.5090 P   0  0  0  0  0  0  0  0  0  0  0  0
  -24.9500   13.5010    7.2320 O   0  0  0  0  0  0  0  0  0  0  0  0
  -23.8620   12.5280    5.1480 O   0  0  0  0  0  0  0  0  0  0  0  0
  -22.6830   14.2260    6.5030 O   0  0  0  0  0  0  0  0  0  0  0  0
  1  2  1  0
  2  3  1  0
  3  4  1  0
  4  5  2  0
  5  6  1  0
  1  6  2  0
  4  7  1  0
  7  8  1  0
  8  9  2  0
  9 10  1  0
  5 10  1  0
  8 11  1  0
 11 12  2  0
 12 13  1  0
 13 14  2  0
  9 14  1  0
  7 15  1  0
 15 16  1  0
 11 17  1  0
 16 17  1  0
  1 18  1  0
 13 19  1  0
 12 20  1  0
 15 21  1  1
 17 22  1  0
 17 23  1  0
 10 24  1  0
  3 25  2  0
 24 26  1  0
 26 27  1  0
 27 28  1  0
 28 29  1  0
 26 30  1  6
 27 31  1  1
 28 32  1  1
 29 33  1  0
 33 34  1  0
 34 35  2  0
 34 36  1  0
 34 37  1  0
M  END
$$$$
