7XRL_FWK_A_605
     RDKit          3D

 19 21  0  0  0  0  0  0  0  0999 V2000
   12.5470    1.2510   42.5890 C   0  0  0  0  0  0  0  0  0  0  0  0
   11.1070    0.7790   42.5590 C   0  0  1  0  0  0  0  0  0  0  0  0
   10.6170    0.8770   41.2160 O   0  0  0  0  0  0  0  0  0  0  0  0
   10.9330   -0.6710   42.9440 C   0  0  1  0  0  0  0  0  0  0  0  0
   10.7820   -0.8100   44.3670 O   0  0  0  0  0  0  0  0  0  0  0  0
    9.6720   -1.0460   42.1890 C   0  0  1  0  0  0  0  0  0  0  0  0
    8.5360   -0.7250   42.9860 O   0  0  0  0  0  0  0  0  0  0  0  0
    9.6230   -0.1280   40.9750 C   0  0  2  0  0  0  0  0  0  0  0  0
   10.0550   -0.7510   39.7020 N   0  0  0  0  0  0  0  0  0  0  0  0
    9.7510   -0.2320   38.4930 C   0  0  0  0  0  0  0  0  0  0  0  0
   10.3160   -0.9500   37.4940 N   0  0  0  0  0  0  0  0  0  0  0  0
   11.0150   -1.9410   38.0630 C   0  0  0  0  0  0  0  0  0  0  0  0
   10.8540   -1.8060   39.5270 C   0  0  0  0  0  0  0  0  0  0  0  0
   11.4680   -2.7110   40.3320 N   0  0  0  0  0  0  0  0  0  0  0  0
   12.2130   -3.7020   39.8130 C   0  0  0  0  0  0  0  0  0  0  0  0
   12.3840   -3.8780   38.4950 N   0  0  0  0  0  0  0  0  0  0  0  0
   11.8350   -3.0600   37.5710 C   0  0  0  0  0  0  0  0  0  0  0  0
   12.0320   -3.2520   36.2360 N   0  0  0  0  0  0  0  0  0  0  0  0
   12.5110    2.7550   42.4000 C   0  0  0  0  0  0  0  0  0  0  0  0
  2  1  1  6
  2  3  1  0
  2  4  1  0
  4  5  1  1
  4  6  1  0
  6  7  1  1
  6  8  1  0
  3  8  1  0
  8  9  1  6
  9 10  1  0
 10 11  2  0
 11 12  1  0
  9 13  1  0
 12 13  2  0
 13 14  1  0
 14 15  2  0
 15 16  1  0
 12 17  1  0
 16 17  2  0
 17 18  1  0
  1 19  1  0
M  END
$$$$
