8DSC_NCA_B_1101
     RDKit          3D

  9  9  0  0  0  0  0  0  0  0999 V2000
    4.1746   15.1828   35.1382 N   0  0  0  0  0  0  0  0  0  0  0  0
    2.9503   15.5120   35.6416 C   0  0  0  0  0  0  0  0  0  0  0  0
    1.8377   15.4906   34.8245 C   0  0  0  0  0  0  0  0  0  0  0  0
    1.9363   15.1392   33.4922 C   0  0  0  0  0  0  0  0  0  0  0  0
    3.1925   14.8130   33.0221 C   0  0  0  0  0  0  0  0  0  0  0  0
    4.3164   14.8299   33.8285 C   0  0  0  0  0  0  0  0  0  0  0  0
    0.5414   15.8491   35.3967 C   0  0  0  0  0  0  0  0  0  0  0  0
   -0.4747   15.8564   34.6538 O   0  0  0  0  0  0  0  0  0  0  0  0
    0.4078   16.1875   36.7677 N   0  0  0  0  0  0  0  0  0  0  0  0
  1  2  2  0
  2  3  1  0
  3  4  2  0
  4  5  1  0
  1  6  1  0
  5  6  2  0
  3  7  1  0
  7  8  2  0
  7  9  1  0
M  END
$$$$
