7R3D_APR_AAA_401
     RDKit          3D

 59 62  0  0  0  0  0  0  0  0999 V2000
   -3.8998   28.2825  -17.9875 N   0  0  0  0  0  0  0  0  0  0  0  0
   -5.0570   27.6218  -18.3132 C   0  0  0  0  0  0  0  0  0  0  0  0
   -5.0221   26.3098  -18.6978 N   0  0  0  0  0  0  0  0  0  0  0  0
   -3.8162   25.6932  -18.7420 C   0  0  0  0  0  0  0  0  0  0  0  0
   -2.6616   26.3219  -18.4269 C   0  0  0  0  0  0  0  0  0  0  0  0
   -2.6844   27.6566  -18.0379 C   0  0  0  0  0  0  0  0  0  0  0  0
   -1.4920   28.3600  -17.6898 N   0  0  0  0  0  0  0  0  0  0  0  0
   -1.6151   25.4842  -18.5587 N   0  0  0  0  0  0  0  0  0  0  0  0
   -2.2065   24.3273  -18.9687 C   0  0  0  0  0  0  0  0  0  0  0  0
   -3.5559   24.4236  -19.0793 N   0  0  0  0  0  0  0  0  0  0  0  0
   -4.4943   23.4109  -19.5603 C   0  0  1  0  0  0  0  0  0  0  0  0
   -4.1174   22.9418  -20.9769 C   0  0  2  0  0  0  0  0  0  0  0  0
   -5.1189   23.2730  -21.9120 O   0  0  0  0  0  0  0  0  0  0  0  0
   -3.9395   21.4397  -20.8186 C   0  0  2  0  0  0  0  0  0  0  0  0
   -4.5192   20.7064  -21.8669 O   0  0  0  0  0  0  0  0  0  0  0  0
   -4.4733   22.2986  -18.6916 O   0  0  0  0  0  0  0  0  0  0  0  0
   -4.6515   21.1650  -19.5029 C   0  0  2  0  0  0  0  0  0  0  0  0
   -4.1135   19.9199  -18.7948 C   0  0  1  0  0  0  0  0  0  0  0  0
   -4.9389   19.6361  -17.6899 O   0  0  0  0  0  0  0  0  0  0  0  0
   -5.2574   17.9589  -17.6462 P   0  0  2  0  0  5  0  0  0  0  0  0
   -4.2200   17.2276  -16.8172 O   0  0  0  0  0  0  0  0  0  0  0  0
   -5.2308   17.3521  -19.2299 O   0  0  0  0  0  0  0  0  0  0  0  0
   -6.8053   17.6680  -17.0034 O   0  0  0  0  0  0  0  0  0  0  0  0
   -6.6305   16.5726  -15.7096 P   0  0  1  0  0  5  0  0  0  0  0  0
   -7.5625   15.4019  -15.9410 O   0  0  0  0  0  0  0  0  0  0  0  0
   -5.0436   15.9853  -15.6271 O   0  0  0  0  0  0  0  0  0  0  0  0
   -7.0176   17.3170  -14.2243 O   0  0  0  0  0  0  0  0  0  0  0  0
   -8.1618   16.6888  -13.6895 C   0  0  1  0  0  0  0  0  0  0  0  0
   -6.6548   15.4239  -12.2959 O   0  0  0  0  0  0  0  0  0  0  0  0
   -4.8163   16.7626  -12.0187 O   0  0  0  0  0  0  0  0  0  0  0  0
   -5.7742   15.9862  -11.3466 C   0  0  1  0  0  0  0  0  0  0  0  0
   -7.0496   16.0850   -9.3152 O   0  0  0  0  0  0  0  0  0  0  0  0
   -6.5795   16.8583  -10.3900 C   0  0  2  0  0  0  0  0  0  0  0  0
   -8.9005   17.4910  -10.5172 O   0  0  0  0  0  0  0  0  0  0  0  0
   -7.7216   17.3127  -11.2593 C   0  0  2  0  0  0  0  0  0  0  0  0
   -7.8529   16.1753  -12.2778 C   0  0  1  0  0  0  0  0  0  0  0  0
   -6.0033   28.1415  -18.2631 H   0  0  0  0  0  0  0  0  0  0  0  0
   -0.7836   28.6079  -18.4154 H   0  0  0  0  0  0  0  0  0  0  0  0
   -1.3151   28.6364  -16.7022 H   0  0  0  0  0  0  0  0  0  0  0  0
   -1.6518   23.4245  -19.1905 H   0  0  0  0  0  0  0  0  0  0  0  0
   -5.5245   23.8369  -19.5488 H   0  0  0  0  0  0  0  0  0  0  0  0
   -3.1587   23.3954  -21.3156 H   0  0  0  0  0  0  0  0  0  0  0  0
   -5.8890   22.6603  -21.7684 H   0  0  0  0  0  0  0  0  0  0  0  0
   -2.8521   21.1992  -20.7246 H   0  0  0  0  0  0  0  0  0  0  0  0
   -4.6914   21.3560  -22.5946 H   0  0  0  0  0  0  0  0  0  0  0  0
   -5.7444   21.0234  -19.6832 H   0  0  0  0  0  0  0  0  0  0  0  0
   -4.1142   19.0837  -19.5288 H   0  0  0  0  0  0  0  0  0  0  0  0
   -3.0741   20.1183  -18.4494 H   0  0  0  0  0  0  0  0  0  0  0  0
   -4.3413   16.9273  -19.3339 H   0  0  0  0  0  0  0  0  0  0  0  0
   -4.4752   16.7543  -15.8794 H   0  0  0  0  0  0  0  0  0  0  0  0
   -9.0133   17.4042  -13.6295 H   0  0  0  0  0  0  0  0  0  0  0  0
   -8.4654   15.8143  -14.3094 H   0  0  0  0  0  0  0  0  0  0  0  0
   -4.2714   17.2144  -11.3204 H   0  0  0  0  0  0  0  0  0  0  0  0
   -5.2696   15.1590  -10.7958 H   0  0  0  0  0  0  0  0  0  0  0  0
   -6.2633   15.8946   -8.7396 H   0  0  0  0  0  0  0  0  0  0  0  0
   -5.9890   17.7289  -10.0187 H   0  0  0  0  0  0  0  0  0  0  0  0
   -9.3780   18.2566  -10.9344 H   0  0  0  0  0  0  0  0  0  0  0  0
   -7.4322   18.2661  -11.7554 H   0  0  0  0  0  0  0  0  0  0  0  0
   -8.6788   15.4958  -11.9649 H   0  0  0  0  0  0  0  0  0  0  0  0
  1  2  2  0
  2  3  1  0
  3  4  2  0
  4  5  1  0
  1  6  1  0
  5  6  2  0
  6  7  1  0
  5  8  1  0
  8  9  2  0
  4 10  1  0
  9 10  1  0
 11 10  1  0
 11 12  1  0
 12 13  1  0
 12 14  1  0
 14 15  1  0
 11 16  1  0
 14 17  1  0
 16 17  1  0
 17 18  1  0
 18 19  1  0
 20 19  1  6
 20 21  2  0
 20 22  1  0
 20 23  1  0
 24 23  1  6
 24 25  2  0
 24 26  1  0
 24 27  1  0
 27 28  1  0
 29 31  1  0
 31 30  1  0
 31 33  1  0
 33 32  1  0
 33 35  1  0
 35 34  1  0
 36 28  1  0
 29 36  1  0
 35 36  1  0
  2 37  1  0
  7 38  1  0
  7 39  1  0
  9 40  1  0
 11 41  1  6
 12 42  1  6
 13 43  1  0
 14 44  1  1
 15 45  1  0
 17 46  1  6
 18 47  1  6
 18 48  1  0
 22 49  1  0
 26 50  1  0
 28 51  1  1
 28 52  1  0
 30 53  1  0
 31 54  1  1
 32 55  1  0
 33 56  1  1
 34 57  1  0
 35 58  1  6
 36 59  1  1
M  END
