7FB7_8NF_A_304
     RDKit          3D

 19 19  0  0  0  0  0  0  0  0999 V2000
   13.2091   19.8280   40.9503 C   0  0  0  0  0  0  0  0  0  0  0  0
   14.2576   20.9306   41.0921 C   0  0  0  0  0  0  0  0  0  0  0  0
   15.4198   20.6682   41.7768 C   0  0  0  0  0  0  0  0  0  0  0  0
   16.3550   21.7083   41.8694 C   0  0  0  0  0  0  0  0  0  0  0  0
   14.9825   23.1402   40.6034 C   0  0  0  0  0  0  0  0  0  0  0  0
   14.0383   22.1293   40.5046 C   0  0  0  0  0  0  0  0  0  0  0  0
   17.6944   21.5446   42.5922 C   0  0  0  0  0  0  0  0  0  0  0  0
   16.1150   22.8710   41.2925 N   0  0  0  0  0  0  0  0  0  0  0  0
   12.8424   22.4654   39.7552 N   0  0  0  0  0  0  0  0  0  0  0  0
   13.5386   18.9534   41.4714 H   0  0  0  0  0  0  0  0  0  0  0  0
   13.0731   19.5961   39.9146 H   0  0  0  0  0  0  0  0  0  0  0  0
   12.2815   20.1623   41.3657 H   0  0  0  0  0  0  0  0  0  0  0  0
   15.5965   19.7456   42.2042 H   0  0  0  0  0  0  0  0  0  0  0  0
   14.8271   24.0627   40.1677 H   0  0  0  0  0  0  0  0  0  0  0  0
   17.7561   20.5616   43.0106 H   0  0  0  0  0  0  0  0  0  0  0  0
   17.7684   22.2706   43.3747 H   0  0  0  0  0  0  0  0  0  0  0  0
   18.4948   21.6871   41.8965 H   0  0  0  0  0  0  0  0  0  0  0  0
   12.7484   23.3592   39.3531 H   0  0  0  0  0  0  0  0  0  0  0  0
   12.1248   21.7998   39.6487 H   0  0  0  0  0  0  0  0  0  0  0  0
  1  2  1  0
  2  3  4  0
  3  4  4  0
  5  6  4  0
  2  6  4  0
  4  7  1  0
  5  8  4  0
  4  8  4  0
  6  9  1  0
  1 10  1  0
  1 11  1  0
  1 12  1  0
  3 13  1  0
  5 14  1  0
  7 15  1  0
  7 16  1  0
  7 17  1  0
  9 18  1  0
  9 19  1  0
M  END
