7JNB_A2G_A_503
     RDKit          3D

 15 15  0  0  0  0  0  0  0  0999 V2000
   48.2667   10.9031  102.9244 O   0  0  0  0  0  0  0  0  0  0  0  0
   47.8563   12.0850  102.2166 C   0  0  2  0  0  0  0  0  0  0  0  0
   46.4552   12.2264  102.3985 O   0  0  0  0  0  0  0  0  0  0  0  0
   48.1456   12.0208  100.7125 C   0  0  2  0  0  0  0  0  0  0  0  0
   47.5191   13.1183   99.9803 N   0  0  0  0  0  0  0  0  0  0  0  0
   47.6641   10.6876  100.1383 C   0  0  1  0  0  0  0  0  0  0  0  0
   47.9566   10.6543   98.7369 O   0  0  0  0  0  0  0  0  0  0  0  0
   48.2233    9.5097  100.9409 C   0  0  1  0  0  0  0  0  0  0  0  0
   49.6555    9.4908  100.8985 O   0  0  0  0  0  0  0  0  0  0  0  0
   47.7739    9.6691  102.3977 C   0  0  1  0  0  0  0  0  0  0  0  0
   48.2744    8.5480  103.2927 C   0  0  0  0  0  0  0  0  0  0  0  0
   47.2137    7.6228  103.5996 O   0  0  0  0  0  0  0  0  0  0  0  0
   48.2029   14.2203   99.6796 C   0  0  0  0  0  0  0  0  0  0  0  0
   49.3452   14.3737  100.0783 O   0  0  0  0  0  0  0  0  0  0  0  0
   47.5057   15.2384   98.8367 C   0  0  0  0  0  0  0  0  0  0  0  0
  1  2  1  0
  2  3  1  6
  2  4  1  0
  4  5  1  6
  4  6  1  0
  6  7  1  6
  6  8  1  0
  8  9  1  1
  1 10  1  0
  8 10  1  0
 10 11  1  1
 11 12  1  0
  5 13  1  0
 13 14  2  0
 13 15  1  0
M  END
