7ZU2_DHT_A_1001
     RDKit          3D

 51 54  0  0  0  0  0  0  0  0999 V2000
   -0.3646    3.4647   -0.4523 C   0  0  0  0  0  0  0  0  0  0  0  0
   -1.3546    4.5677   -0.0097 C   0  0  0  0  0  0  0  0  0  0  0  0
   -1.7430    4.4808    1.4392 C   0  0  0  0  0  0  0  0  0  0  0  0
   -1.8429    5.5014    2.1026 O   0  0  0  0  0  0  0  0  0  0  0  0
   -2.0777    3.1566    2.0642 C   0  0  0  0  0  0  0  0  0  0  0  0
   -1.7143    1.9837    1.1302 C   0  0  2  0  0  0  0  0  0  0  0  0
   -1.8384    0.6466    1.8875 C   0  0  0  0  0  0  0  0  0  0  0  0
   -1.5549   -0.5407    0.9674 C   0  0  0  0  0  0  0  0  0  0  0  0
   -0.1558   -0.4309    0.3352 C   0  0  2  0  0  0  0  0  0  0  0  0
   -0.0261    0.9142   -0.4567 C   0  0  1  0  0  0  0  0  0  0  0  0
   -0.3130    2.1765    0.4470 C   0  0  1  0  0  0  0  0  0  0  0  0
    1.3091    0.9973   -1.2681 C   0  0  0  0  0  0  0  0  0  0  0  0
    1.5687   -0.2561   -2.1379 C   0  0  0  0  0  0  0  0  0  0  0  0
    1.4818   -1.5454   -1.2916 C   0  0  1  0  0  0  0  0  0  0  0  0
    0.0897   -1.5938   -0.6501 C   0  0  1  0  0  0  0  0  0  0  0  0
   -0.0585   -3.0290   -0.1625 C   0  0  0  0  0  0  0  0  0  0  0  0
    0.7088   -3.8582   -1.2085 C   0  0  0  0  0  0  0  0  0  0  0  0
    1.4548   -2.8527   -2.1117 C   0  0  2  0  0  0  0  0  0  0  0  0
    2.7373   -3.3259   -2.4342 O   0  0  0  0  0  0  0  0  0  0  0  0
    2.6573   -1.5983   -0.2621 C   0  0  0  0  0  0  0  0  0  0  0  0
    0.8069    2.3665    1.5157 C   0  0  0  0  0  0  0  0  0  0  0  0
   -0.6501    3.1943   -1.4927 H   0  0  0  0  0  0  0  0  0  0  0  0
    0.6509    3.9115   -0.5363 H   0  0  0  0  0  0  0  0  0  0  0  0
   -2.2868    4.4824   -0.6094 H   0  0  0  0  0  0  0  0  0  0  0  0
   -0.9155    5.5660   -0.2277 H   0  0  0  0  0  0  0  0  0  0  0  0
   -1.5305    3.0652    3.0276 H   0  0  0  0  0  0  0  0  0  0  0  0
   -3.1654    3.1303    2.2919 H   0  0  0  0  0  0  0  0  0  0  0  0
   -2.4838    1.9656    0.3230 H   0  0  0  0  0  0  0  0  0  0  0  0
   -1.1499    0.6179    2.7588 H   0  0  0  0  0  0  0  0  0  0  0  0
   -2.8728    0.5434    2.2827 H   0  0  0  0  0  0  0  0  0  0  0  0
   -2.3342   -0.5870    0.1744 H   0  0  0  0  0  0  0  0  0  0  0  0
   -1.6240   -1.4729    1.5686 H   0  0  0  0  0  0  0  0  0  0  0  0
    0.5852   -0.4806    1.1566 H   0  0  0  0  0  0  0  0  0  0  0  0
   -0.8322    0.8948   -1.2274 H   0  0  0  0  0  0  0  0  0  0  0  0
    2.1756    1.1465   -0.5979 H   0  0  0  0  0  0  0  0  0  0  0  0
    1.2828    1.8749   -1.9471 H   0  0  0  0  0  0  0  0  0  0  0  0
    0.8182   -0.2830   -2.9588 H   0  0  0  0  0  0  0  0  0  0  0  0
    2.5715   -0.1770   -2.6111 H   0  0  0  0  0  0  0  0  0  0  0  0
   -0.6733   -1.4814   -1.4609 H   0  0  0  0  0  0  0  0  0  0  0  0
    0.3953   -3.1497    0.8453 H   0  0  0  0  0  0  0  0  0  0  0  0
   -1.1278   -3.3308   -0.1202 H   0  0  0  0  0  0  0  0  0  0  0  0
    0.0058   -4.4698   -1.8152 H   0  0  0  0  0  0  0  0  0  0  0  0
    1.4221   -4.5407   -0.6961 H   0  0  0  0  0  0  0  0  0  0  0  0
    0.8603   -2.7116   -3.0463 H   0  0  0  0  0  0  0  0  0  0  0  0
    3.0853   -2.7284   -3.1463 H   0  0  0  0  0  0  0  0  0  0  0  0
    3.6311   -1.5468   -0.7938 H   0  0  0  0  0  0  0  0  0  0  0  0
    2.6454   -0.7600    0.4588 H   0  0  0  0  0  0  0  0  0  0  0  0
    2.6475   -2.5388    0.3266 H   0  0  0  0  0  0  0  0  0  0  0  0
    0.8960    1.4964    2.1935 H   0  0  0  0  0  0  0  0  0  0  0  0
    1.7956    2.5360    1.0464 H   0  0  0  0  0  0  0  0  0  0  0  0
    0.6225    3.2627    2.1413 H   0  0  0  0  0  0  0  0  0  0  0  0
  1  2  1  0
  2  3  1  0
  3  4  2  0
  3  5  1  0
  6  5  1  0
  6  7  1  0
  7  8  1  0
  9  8  1  0
  9 10  1  0
  1 11  1  0
  6 11  1  0
 10 11  1  0
 10 12  1  0
 12 13  1  0
 13 14  1  0
  9 15  1  0
 14 15  1  0
 15 16  1  0
 16 17  1  0
 14 18  1  0
 17 18  1  0
 18 19  1  0
 14 20  1  1
 11 21  1  1
  1 22  1  0
  1 23  1  0
  2 24  1  0
  2 25  1  0
  5 26  1  0
  5 27  1  0
  6 28  1  6
  7 29  1  0
  7 30  1  0
  8 31  1  0
  8 32  1  0
  9 33  1  1
 10 34  1  6
 12 35  1  0
 12 36  1  0
 13 37  1  0
 13 38  1  0
 15 39  1  6
 16 40  1  0
 16 41  1  0
 17 42  1  0
 17 43  1  0
 18 44  1  6
 19 45  1  0
 20 46  1  0
 20 47  1  0
 20 48  1  0
 21 49  1  0
 21 50  1  0
 21 51  1  0
M  END
