7BNH_BEZ_A_501
     RDKit          3D

 15 15  0  0  0  0  0  0  0  0999 V2000
  -11.0916   -3.6332   22.6626 C   0  0  0  0  0  0  0  0  0  0  0  0
  -12.3021   -3.5244   22.3270 O   0  0  0  0  0  0  0  0  0  0  0  0
  -10.7308   -4.5850   23.6131 O   0  0  0  0  0  0  0  0  0  0  0  0
  -10.0637   -2.7600   22.0544 C   0  0  0  0  0  0  0  0  0  0  0  0
  -10.4185   -1.7949   21.0927 C   0  0  0  0  0  0  0  0  0  0  0  0
   -9.4415   -0.9729   20.5220 C   0  0  0  0  0  0  0  0  0  0  0  0
   -8.1045   -1.1045   20.9033 C   0  0  0  0  0  0  0  0  0  0  0  0
   -7.7411   -2.0586   21.8565 C   0  0  0  0  0  0  0  0  0  0  0  0
   -8.7137   -2.8834   22.4307 C   0  0  0  0  0  0  0  0  0  0  0  0
   -9.7655   -4.6933   23.9005 H   0  0  0  0  0  0  0  0  0  0  0  0
  -11.4488   -1.6750   20.7818 H   0  0  0  0  0  0  0  0  0  0  0  0
   -9.7220   -0.2332   19.7832 H   0  0  0  0  0  0  0  0  0  0  0  0
   -7.3500   -0.4673   20.4603 H   0  0  0  0  0  0  0  0  0  0  0  0
   -6.7044   -2.1595   22.1511 H   0  0  0  0  0  0  0  0  0  0  0  0
   -8.4082   -3.6157   23.1673 H   0  0  0  0  0  0  0  0  0  0  0  0
  1  2  2  0
  1  3  1  0
  1  4  1  0
  4  5  2  0
  5  6  1  0
  6  7  2  0
  7  8  1  0
  4  9  1  0
  8  9  2  0
  3 10  1  0
  5 11  1  0
  6 12  1  0
  7 13  1  0
  8 14  1  0
  9 15  1  0
M  END
