7V14_ORU_A_702
     RDKit          3D

 35 40  0  0  0  0  0  0  0  0999 V2000
   35.0401    3.7690   -4.3060 C   0  0  0  0  0  0  0  0  0  0  0  0
   33.6808    3.8604   -4.0005 C   0  0  0  0  0  0  0  0  0  0  0  0
   32.8459    4.5820   -4.8060 C   0  0  0  0  0  0  0  0  0  0  0  0
   33.2918    5.2540   -5.9537 C   0  0  0  0  0  0  0  0  0  0  0  0
   32.3335    6.0010   -6.7640 C   0  0  1  0  0  0  0  0  0  0  0  0
   32.0302    5.1521   -9.0295 C   0  0  2  0  0  0  0  0  0  0  0  0
   29.8616    7.8740   -4.9693 C   0  0  0  0  0  0  0  0  0  0  0  0
   25.9432    8.1680   -3.8012 C   0  0  0  0  0  0  0  0  0  0  0  0
   35.7595    1.6490   -3.2199 C   0  0  0  0  0  0  0  0  0  0  0  0
   36.6201    0.9472   -2.4010 C   0  0  0  0  0  0  0  0  0  0  0  0
   37.6724    1.6384   -1.8055 C   0  0  0  0  0  0  0  0  0  0  0  0
   31.3877    4.0900   -9.9122 C   0  0  0  0  0  0  0  0  0  0  0  0
   32.8564    4.0207   -9.4972 C   0  0  0  0  0  0  0  0  0  0  0  0
   30.2219    6.8285   -5.7643 C   0  0  0  0  0  0  0  0  0  0  0  0
   30.9557    8.6250   -4.6728 C   0  0  0  0  0  0  0  0  0  0  0  0
   28.4840    8.1131   -4.5248 C   0  0  0  0  0  0  0  0  0  0  0  0
   27.8830    9.2348   -4.0767 C   0  0  0  0  0  0  0  0  0  0  0  0
   35.9313    2.9991   -3.4467 C   0  0  0  0  0  0  0  0  0  0  0  0
   37.8317    2.9884   -2.0415 C   0  0  0  0  0  0  0  0  0  0  0  0
   35.4531    4.4326   -5.4306 C   0  0  0  0  0  0  0  0  0  0  0  0
   36.9804    3.7136   -2.8596 C   0  0  0  0  0  0  0  0  0  0  0  0
   38.3346    5.7846   -3.0526 C   0  0  0  0  0  0  0  0  0  0  0  0
   31.4417    5.1689   -7.6356 C   0  0  0  0  0  0  0  0  0  0  0  0
   34.7160    0.9913   -3.8176 F   0  0  0  0  0  0  0  0  0  0  0  0
   31.5549    6.9504   -5.9505 N   0  0  0  0  0  0  0  0  0  0  0  0
   31.9962    8.0161   -5.3043 N   0  0  0  0  0  0  0  0  0  0  0  0
   34.6057    5.1372   -6.2069 N   0  0  0  0  0  0  0  0  0  0  0  0
   26.6129    9.0963   -3.7565 N   0  0  0  0  0  0  0  0  0  0  0  0
   37.1604    5.1062   -3.0915 N   0  0  0  0  0  0  0  0  0  0  0  0
   38.1153    7.0893   -3.3241 N   0  0  0  0  0  0  0  0  0  0  0  0
   36.8126    7.2145   -3.5293 N   0  0  0  0  0  0  0  0  0  0  0  0
   36.2488    6.0289   -3.3893 N   0  0  0  0  0  0  0  0  0  0  0  0
   35.1459    5.7516   -7.3071 O   0  0  0  0  0  0  0  0  0  0  0  0
   27.1843    6.8866   -4.4680 S   0  0  0  0  0  0  0  0  0  0  0  0
   36.4368   -0.7653   -2.0877 Cl  0  0  0  0  0  0  0  0  0  0  0  0
  1  2  2  0
  2  3  1  0
  3  4  2  0
  4  5  1  0
  9 10  2  0
 10 11  1  0
 12  6  1  6
  6 13  1  0
 13 12  1  6
  7 14  2  0
  7 15  1  0
  7 16  1  0
 16 17  2  0
  1 18  1  0
  9 18  1  0
 11 19  2  0
  1 20  1  0
 18 21  2  0
 19 21  1  0
  6 23  1  1
 23  5  1  6
  9 24  1  0
  5 25  1  1
 14 25  1  0
 25 26  1  0
 15 26  2  0
  4 27  1  0
 20 27  2  0
 17 28  1  0
  8 28  2  0
 22 29  1  0
 21 29  1  0
 22 30  2  0
 30 31  1  0
 29 32  1  0
 31 32  2  0
 27 33  1  0
 16 34  1  0
  8 34  1  0
 10 35  1  0
M  CHG  2  27   1  33  -1
M  END
$$$$
