7M41_YQG_A_201
     RDKit          3D

 32 36  0  0  0  0  0  0  0  0999 V2000
  -10.8153  -22.0518   15.1265 N   0  0  0  0  0  0  0  0  0  0  0  0
  -13.1314  -22.5396   12.4532 N   0  0  0  0  0  0  0  0  0  0  0  0
   -9.0977  -20.4265   15.3309 C   0  0  0  0  0  0  0  0  0  0  0  0
  -10.1095  -20.9602   14.5886 C   0  0  0  0  0  0  0  0  0  0  0  0
  -10.4137  -20.3801   13.3280 C   0  0  0  0  0  0  0  0  0  0  0  0
  -11.8353  -22.5839   14.4063 C   0  0  0  0  0  0  0  0  0  0  0  0
  -11.5021  -20.9866   12.6177 C   0  0  0  0  0  0  0  0  0  0  0  0
  -14.0651  -21.8870   10.1501 C   0  0  0  0  0  0  0  0  0  0  0  0
   -7.3907  -15.1851   13.5793 C   0  0  0  0  0  0  0  0  0  0  0  0
   -6.0455  -16.4713   11.9500 C   0  0  0  0  0  0  0  0  0  0  0  0
   -9.2465  -16.0959   14.9085 C   0  0  0  0  0  0  0  0  0  0  0  0
   -2.6268  -14.1170    8.7986 C   0  0  0  0  0  0  0  0  0  0  0  0
   -9.7250  -19.2785   12.8151 C   0  0  0  0  0  0  0  0  0  0  0  0
   -7.8450  -17.5654   13.1783 C   0  0  0  0  0  0  0  0  0  0  0  0
   -8.1214  -16.2316   13.8787 C   0  0  0  0  0  0  0  0  0  0  0  0
   -6.2893  -15.3248   12.5421 C   0  0  0  0  0  0  0  0  0  0  0  0
   -6.8890  -17.6856   12.2898 C   0  0  0  0  0  0  0  0  0  0  0  0
   -4.5484  -13.3799    9.7568 C   0  0  0  0  0  0  0  0  0  0  0  0
   -3.3584  -13.5783    7.8402 C   0  0  0  0  0  0  0  0  0  0  0  0
   -8.6978  -18.7552   13.5893 C   0  0  0  0  0  0  0  0  0  0  0  0
   -8.4163  -19.3540   14.8235 C   0  0  0  0  0  0  0  0  0  0  0  0
  -13.1274  -21.7376   11.3415 C   0  0  0  0  0  0  0  0  0  0  0  0
  -12.1648  -22.0437   13.1456 N   0  0  0  0  0  0  0  0  0  0  0  0
  -12.0716  -20.7411   11.4192 N   0  0  0  0  0  0  0  0  0  0  0  0
   -5.4292  -14.2121   12.2431 N   0  0  0  0  0  0  0  0  0  0  0  0
   -4.6797  -13.0685    8.5004 N   0  0  0  0  0  0  0  0  0  0  0  0
   -3.3404  -13.9832    9.9140 N   0  0  0  0  0  0  0  0  0  0  0  0
  -12.5376  -23.6537   14.9242 O   0  0  0  0  0  0  0  0  0  0  0  0
   -5.3812  -11.7247   11.5890 O   0  0  0  0  0  0  0  0  0  0  0  0
   -7.0977  -13.0240   10.5709 O   0  0  0  0  0  0  0  0  0  0  0  0
   -5.7284  -13.0575   11.0704 S   0  0  1  0  0  0  0  0  0  0  0  0
   -7.1149  -18.7485   15.8604 Cl  0  0  0  0  0  0  0  0  0  0  0  0
  1  4  1  0
  3  4  2  0
  4  5  1  0
  1  6  1  0
  5  7  1  0
  5 13  2  0
  9 15  2  0
 11 15  1  0
 14 15  1  0
  9 16  1  0
 10 16  2  0
 10 17  1  0
 14 17  2  0
 12 19  2  0
 13 20  1  0
 14 20  1  0
 20 21  2  0
  3 21  1  0
  8 22  1  0
  2 22  2  0
  2 23  1  0
  7 23  1  0
  6 23  1  0
 22 24  1  0
  7 24  2  0
 16 25  1  0
 19 26  1  0
 18 26  1  0
 12 27  1  0
 18 27  2  0
  6 28  2  0
 18 31  1  0
 30 31  2  0
 29 31  2  0
 31 25  1  1
 21 32  1  0
M  END
