7CL8_TES_A_505
     RDKit          3D

 21 24  0  0  0  0  0  0  0  0999 V2000
   -0.2060    8.1521  -22.5674 C   0  0  0  0  0  0  0  0  0  0  0  0
   -0.3778    8.4633  -24.0043 C   0  0  0  0  0  0  0  0  0  0  0  0
   -0.7208    7.3207  -24.8729 C   0  0  0  0  0  0  0  0  0  0  0  0
   -1.3745    7.4667  -25.9391 O   0  0  0  0  0  0  0  0  0  0  0  0
   -0.2798    5.9872  -24.4666 C   0  0  0  0  0  0  0  0  0  0  0  0
   -0.1849    5.7222  -23.1703 C   0  0  0  0  0  0  0  0  0  0  0  0
    0.2587    4.3823  -22.7012 C   0  0  0  0  0  0  0  0  0  0  0  0
   -0.2537    3.9932  -21.3627 C   0  0  0  0  0  0  0  0  0  0  0  0
   -0.4929    5.0977  -20.3986 C   0  0  2  0  0  0  0  0  0  0  0  0
    0.2160    6.3374  -20.8963 C   0  0  1  0  0  0  0  0  0  0  0  0
   -0.5181    6.7538  -22.1524 C   0  0  1  0  0  0  0  0  0  0  0  0
    0.4137    7.3906  -19.8805 C   0  0  0  0  0  0  0  0  0  0  0  0
   -0.2909    7.2505  -18.5766 C   0  0  0  0  0  0  0  0  0  0  0  0
   -0.6828    5.8941  -18.1588 C   0  0  1  0  0  0  0  0  0  0  0  0
    0.0430    4.8469  -19.0210 C   0  0  1  0  0  0  0  0  0  0  0  0
   -0.4364    3.6035  -18.3533 C   0  0  0  0  0  0  0  0  0  0  0  0
   -0.6809    3.9782  -16.8861 C   0  0  0  0  0  0  0  0  0  0  0  0
   -0.1845    5.4313  -16.8141 C   0  0  2  0  0  0  0  0  0  0  0  0
   -0.7158    6.1080  -15.7487 O   0  0  0  0  0  0  0  0  0  0  0  0
   -2.1684    5.7137  -18.1813 C   0  0  0  0  0  0  0  0  0  0  0  0
   -2.0362    6.6745  -21.9708 C   0  0  0  0  0  0  0  0  0  0  0  0
  1  2  1  0
  2  3  1  0
  3  4  2  0
  3  5  1  0
  5  6  2  0
  6  7  1  0
  7  8  1  0
  9  8  1  6
  9 10  1  0
  1 11  1  0
  6 11  1  0
 10 11  1  0
 10 12  1  1
 12 13  1  0
 13 14  1  0
  9 15  1  0
 14 15  1  0
 15 16  1  1
 16 17  1  0
 14 18  1  0
 17 18  1  0
 18 19  1  1
 14 20  1  1
 11 21  1  1
M  END
$$$$
