7LZQ_YJV_A_201
     RDKit          3D

 35 37  0  0  0  0  0  0  0  0999 V2000
   -3.7639    2.5387    2.3817 C   0  0  0  0  0  0  0  0  0  0  0  0
   -1.4577    2.2261    0.8753 C   0  0  0  0  0  0  0  0  0  0  0  0
   -0.7341   -2.6904   -1.4968 C   0  0  0  0  0  0  0  0  0  0  0  0
   -0.1702   -2.1908   -0.3104 C   0  0  0  0  0  0  0  0  0  0  0  0
    3.0119   -1.0123   -1.3326 C   0  0  0  0  0  0  0  0  0  0  0  0
   -2.8875    1.4921    2.6873 C   0  0  0  0  0  0  0  0  0  0  0  0
    1.1140   -1.6575   -0.3852 C   0  0  0  0  0  0  0  0  0  0  0  0
    1.8534   -1.1098    0.6010 N   0  0  0  0  0  0  0  0  0  0  0  0
    1.4630   -0.8795    1.9913 C   0  0  0  0  0  0  0  0  0  0  0  0
    0.6203    0.3555    2.0832 C   0  0  0  0  0  0  0  0  0  0  0  0
    1.1770    1.4858    2.0357 O   0  0  0  0  0  0  0  0  0  0  0  0
   -0.6648   -3.1717   -3.9072 C   0  0  0  0  0  0  0  0  0  0  0  0
   -2.3626    3.2545    0.6065 C   0  0  0  0  0  0  0  0  0  0  0  0
    3.0099   -0.7046    0.0233 C   0  0  0  0  0  0  0  0  0  0  0  0
    1.2270   -2.1118   -2.7412 C   0  0  0  0  0  0  0  0  0  0  0  0
   -1.7079    1.3376    1.9347 C   0  0  0  0  0  0  0  0  0  0  0  0
    1.7936   -1.6168   -1.5689 C   0  0  0  0  0  0  0  0  0  0  0  0
   -3.4854    3.3890    1.3591 N   0  0  0  0  0  0  0  0  0  0  0  0
   -0.8061    0.2509    2.2082 N   0  0  0  0  0  0  0  0  0  0  0  0
   -0.0372   -2.6545   -2.6856 N   0  0  0  0  0  0  0  0  0  0  0  0
    1.8660   -2.0564   -3.8281 O   0  0  0  0  0  0  0  0  0  0  0  0
   -3.2734    0.4222    4.0290 Cl  0  0  0  0  0  0  0  0  0  0  0  0
   -4.6691    2.6776    2.9580 H   0  0  0  0  0  0  0  0  0  0  0  0
   -0.5843    2.1122    0.2466 H   0  0  0  0  0  0  0  0  0  0  0  0
   -1.7340   -3.1057   -1.4562 H   0  0  0  0  0  0  0  0  0  0  0  0
   -0.7210   -2.2241    0.6193 H   0  0  0  0  0  0  0  0  0  0  0  0
    3.7946   -0.8038   -2.0499 H   0  0  0  0  0  0  0  0  0  0  0  0
    2.3688   -0.7552    2.6238 H   0  0  0  0  0  0  0  0  0  0  0  0
    0.9111   -1.7612    2.3810 H   0  0  0  0  0  0  0  0  0  0  0  0
   -1.6234   -3.6907   -3.6898 H   0  0  0  0  0  0  0  0  0  0  0  0
    0.0106   -3.9025   -4.4014 H   0  0  0  0  0  0  0  0  0  0  0  0
   -0.8702   -2.3329   -4.6057 H   0  0  0  0  0  0  0  0  0  0  0  0
   -2.1757    3.9422   -0.2074 H   0  0  0  0  0  0  0  0  0  0  0  0
    3.8082   -0.1974    0.5498 H   0  0  0  0  0  0  0  0  0  0  0  0
   -1.2039   -0.6567    2.5383 H   0  0  0  0  0  0  0  0  0  0  0  0
  3  4  2  0
  1  6  2  0
  4  7  1  0
  7  8  1  0
  8  9  1  0
  9 10  1  0
 10 11  2  0
  2 13  1  0
  8 14  1  0
  5 14  2  0
  6 16  1  0
  2 16  2  0
  5 17  1  0
  7 17  2  0
 15 17  1  0
  1 18  1  0
 13 18  2  0
 16 19  1  0
 10 19  1  0
 15 20  1  0
  3 20  1  0
 12 20  1  0
 15 21  2  0
  6 22  1  0
  1 23  1  0
  2 24  1  0
  3 25  1  0
  4 26  1  0
  5 27  1  0
  9 28  1  0
  9 29  1  0
 12 30  1  0
 12 31  1  0
 12 32  1  0
 13 33  1  0
 14 34  1  0
 19 35  1  0
M  END
