7LZQ_YJV_A_201
     RDKit          3D

 35 37  0  0  0  0  0  0  0  0999 V2000
  -10.2510   -5.1038  -11.9534 C   0  0  0  0  0  0  0  0  0  0  0  0
  -11.9134   -2.8941  -11.8689 C   0  0  0  0  0  0  0  0  0  0  0  0
  -10.3864   -3.8185  -11.5511 C   0  0  0  0  0  0  0  0  0  0  0  0
  -10.8741   -2.9045  -12.4458 C   0  0  0  0  0  0  0  0  0  0  0  0
   -8.8525    0.0092  -11.7749 C   0  0  0  0  0  0  0  0  0  0  0  0
  -10.5756   -4.4546  -13.1393 C   0  0  0  0  0  0  0  0  0  0  0  0
  -10.3042   -1.6128  -12.4671 C   0  0  0  0  0  0  0  0  0  0  0  0
  -10.5514   -0.4765  -13.2070 N   0  0  0  0  0  4  0  0  0  0  0  0
  -11.5338   -0.3254  -14.1849 C   0  0  0  0  0  0  0  0  0  0  0  0
  -12.2928   -1.5458  -14.5915 C   0  0  0  0  0  0  0  0  0  0  0  0
  -13.3789   -1.4375  -15.0854 O   0  0  0  0  0  0  0  0  0  0  0  0
   -8.8506   -4.5677   -9.6915 C   0  0  0  0  0  0  0  0  0  0  0  0
  -11.5568   -3.5751  -10.7110 C   0  0  0  0  0  0  0  0  0  0  0  0
   -9.6491    0.5138  -12.7719 C   0  0  0  0  0  0  0  0  0  0  0  0
   -8.7580   -2.2385  -10.6200 C   0  0  0  0  0  0  0  0  0  0  0  0
  -11.4008   -3.3442  -13.1455 C   0  0  0  0  0  0  0  0  0  0  0  0
   -9.2742   -1.3142  -11.5778 C   0  0  0  0  0  0  0  0  0  0  0  0
  -10.7129   -4.6962  -10.7402 N   0  0  0  0  0  0  0  0  0  0  0  0
  -11.7050   -2.7741  -14.3566 N   0  0  0  0  0  0  0  0  0  0  0  0
   -9.3566   -3.5366  -10.6691 N   0  0  0  0  0  4  0  0  0  0  0  0
   -7.8246   -1.9954   -9.8569 O   0  0  0  0  0  0  0  0  0  0  0  0
   -9.9197   -5.1624  -14.5575 Cl  0  0  0  0  0  0  0  0  0  0  0  0
   -9.6336   -5.9297  -11.9950 H   0  0  0  0  0  0  0  0  0  0  0  0
  -12.5383   -2.0744  -11.8189 H   0  0  0  0  0  0  0  0  0  0  0  0
  -10.8055   -4.7613  -11.5330 H   0  0  0  0  0  0  0  0  0  0  0  0
  -11.6409   -3.1538  -13.0899 H   0  0  0  0  0  0  0  0  0  0  0  0
   -8.0976    0.5023  -11.2730 H   0  0  0  0  0  0  0  0  0  0  0  0
  -11.0576    0.0630  -15.0608 H   0  0  0  0  0  0  0  0  0  0  0  0
  -12.2656    0.3163  -13.7404 H   0  0  0  0  0  0  0  0  0  0  0  0
   -8.0586   -4.1472   -9.1078 H   0  0  0  0  0  0  0  0  0  0  0  0
   -8.4856   -5.4187  -10.2277 H   0  0  0  0  0  0  0  0  0  0  0  0
   -9.6487   -4.8686   -9.0455 H   0  0  0  0  0  0  0  0  0  0  0  0
  -11.9230   -3.2470   -9.8037 H   0  0  0  0  0  0  0  0  0  0  0  0
   -9.5953    1.4739  -13.1464 H   0  0  0  0  0  0  0  0  0  0  0  0
  -11.4767   -3.3043  -15.1541 H   0  0  0  0  0  0  0  0  0  0  0  0
  3  4  4  0
  1  6  4  0
  4  7  4  0
  7  8  4  0
  8  9  1  0
  9 10  1  0
 10 11  2  0
  2 13  4  0
  8 14  4  0
  5 14  4  0
  6 16  4  0
  2 16  4  0
  5 17  4  0
  7 17  4  0
 15 17  4  0
  1 18  4  0
 13 18  4  0
 16 19  1  0
 10 19  1  0
 15 20  4  0
  3 20  4  0
 12 20  1  0
 15 21  2  0
  6 22  1  0
  1 23  1  0
  2 24  1  0
  3 25  1  0
  4 26  1  0
  5 27  1  0
  9 28  1  0
  9 29  1  0
 12 30  1  0
 12 31  1  0
 12 32  1  0
 13 33  1  0
 14 34  1  0
 19 35  1  0
M  CHG  2   8   1  20   1
M  END
