7P85_5ZG_A_401
     RDKit          3D

 29 29  0  0  0  0  0  0  0  0999 V2000
    2.4365   -9.5402   -7.1035 C   0  0  0  0  0  0  0  0  0  0  0  0
    2.6827  -10.1167   -8.3599 C   0  0  0  0  0  0  0  0  0  0  0  0
    1.6310  -10.3353   -9.2543 C   0  0  0  0  0  0  0  0  0  0  0  0
    0.3222   -9.9626   -8.9126 C   0  0  0  0  0  0  0  0  0  0  0  0
    0.0738   -9.3944   -7.6540 C   0  0  0  0  0  0  0  0  0  0  0  0
    1.1254   -9.1750   -6.7595 C   0  0  0  0  0  0  0  0  0  0  0  0
    3.5719   -9.2678   -6.1577 C   0  0  0  0  0  0  0  0  0  0  0  0
   -0.8114  -10.2322   -9.8572 C   0  0  0  0  0  0  0  0  0  0  0  0
    1.1982   -7.7411   -6.2319 C   0  0  0  0  0  0  0  0  0  0  0  0
    1.4584   -8.9978   -5.4162 C   0  0  0  0  0  0  0  0  0  0  0  0
    3.6935   -7.4803   -5.8264 P   0  0  1  0  0  5  0  0  0  0  0  0
    2.1456   -6.7613   -5.8786 O   0  0  0  0  0  0  0  0  0  0  0  0
    4.3362   -7.2540   -4.2772 O   0  0  0  0  0  0  0  0  0  0  0  0
    4.6183   -6.8393   -6.8385 O   0  0  0  0  0  0  0  0  0  0  0  0
    3.6881  -10.3983   -8.6469 H   0  0  0  0  0  0  0  0  0  0  0  0
    1.8381  -10.7917  -10.2145 H   0  0  0  0  0  0  0  0  0  0  0  0
   -0.9331   -9.1172   -7.3668 H   0  0  0  0  0  0  0  0  0  0  0  0
    0.9180   -8.7204   -5.7985 H   0  0  0  0  0  0  0  0  0  0  0  0
    3.4118   -9.8031   -5.1977 H   0  0  0  0  0  0  0  0  0  0  0  0
    4.5296   -9.6325   -6.5852 H   0  0  0  0  0  0  0  0  0  0  0  0
   -1.2217  -11.2448   -9.6618 H   0  0  0  0  0  0  0  0  0  0  0  0
   -1.6194   -9.4817   -9.7239 H   0  0  0  0  0  0  0  0  0  0  0  0
   -0.4641  -10.1790  -10.9111 H   0  0  0  0  0  0  0  0  0  0  0  0
    1.2709   -8.0139   -7.3082 H   0  0  0  0  0  0  0  0  0  0  0  0
    0.1687   -7.3857   -6.0038 H   0  0  0  0  0  0  0  0  0  0  0  0
    2.4772   -9.3850   -5.6313 H   0  0  0  0  0  0  0  0  0  0  0  0
    0.7134   -9.7782   -5.6798 H   0  0  0  0  0  0  0  0  0  0  0  0
    1.3754   -8.7719   -4.3320 H   0  0  0  0  0  0  0  0  0  0  0  0
    5.2110   -7.7182   -4.2940 H   0  0  0  0  0  0  0  0  0  0  0  0
  1  2  4  0
  2  3  4  0
  3  4  4  0
  4  5  4  0
  1  6  4  0
  5  6  4  0
  1  7  1  0
  4  8  1  0
  9 10  1  0
  7 11  1  0
 11 12  1  6
  9 12  1  0
 11 13  1  0
 11 14  2  0
  2 15  1  0
  3 16  1  0
  5 17  1  0
  6 18  1  0
  7 19  1  0
  7 20  1  0
  8 21  1  0
  8 22  1  0
  8 23  1  0
  9 24  1  0
  9 25  1  0
 10 26  1  0
 10 27  1  0
 10 28  1  0
 13 29  1  0
M  END
