8EAB_VN2_B_302
     RDKit          3D

 49 53  0  0  0  0  0  0  0  0999 V2000
    2.0839  -21.2937   22.0483 C   0  0  0  0  0  0  0  0  0  0  0  0
    1.8780  -21.4582   20.6947 C   0  0  0  0  0  0  0  0  0  0  0  0
    1.6301  -20.3674   19.8485 C   0  0  0  0  0  0  0  0  0  0  0  0
    1.4463  -20.6793   18.4495 C   0  0  0  0  0  0  0  0  0  0  0  0
    1.6274  -19.8425   17.3919 C   0  0  0  0  0  0  0  0  0  0  0  0
    1.4401  -20.2453   16.0685 C   0  0  0  0  0  0  0  0  0  0  0  0
    1.0507  -21.5563   15.8103 C   0  0  0  0  0  0  0  0  0  0  0  0
    0.8596  -22.4255   16.8644 C   0  0  0  0  0  0  0  0  0  0  0  0
    1.0554  -21.9888   18.1530 C   0  0  0  0  0  0  0  0  0  0  0  0
   -0.7857  -13.8273   20.7436 C   0  0  0  0  0  0  0  0  0  0  0  0
    0.8323  -22.0761   14.4416 C   0  0  1  0  0  0  0  0  0  0  0  0
    1.3843  -15.3339   18.2845 C   0  0  0  0  0  0  0  0  0  0  0  0
    0.6984  -14.6269   17.2881 C   0  0  0  0  0  0  0  0  0  0  0  0
    1.2839  -14.3584   16.0678 C   0  0  0  0  0  0  0  0  0  0  0  0
    2.5683  -14.7708   15.7687 C   0  0  0  0  0  0  0  0  0  0  0  0
    3.2397  -15.4668   16.7540 C   0  0  0  0  0  0  0  0  0  0  0  0
    2.6471  -15.7379   17.9877 C   0  0  0  0  0  0  0  0  0  0  0  0
    4.6341  -15.9507   16.5118 C   0  0  2  0  0  0  0  0  0  0  0  0
   -0.8025  -12.7009   21.7085 C   0  0  0  0  0  0  0  0  0  0  0  0
   -1.9329  -12.4088   22.4460 C   0  0  0  0  0  0  0  0  0  0  0  0
   -0.9303  -10.5735   23.5200 C   0  0  0  0  0  0  0  0  0  0  0  0
    0.2043  -10.8435   22.7990 C   0  0  0  0  0  0  0  0  0  0  0  0
    0.2899  -11.9010   21.8892 C   0  0  0  0  0  0  0  0  0  0  0  0
    0.6745  -15.5406   19.5498 C   0  0  1  0  0  0  0  0  0  0  0  0
    1.5665  -12.0682   21.2214 C   0  0  0  0  0  0  0  0  0  0  0  0
    2.5320  -12.7972   21.9288 C   0  0  0  0  0  0  0  0  0  0  0  0
    3.7835  -13.0445   21.4089 C   0  0  0  0  0  0  0  0  0  0  0  0
    4.0818  -12.5506   20.1456 C   0  0  0  0  0  0  0  0  0  0  0  0
    3.1380  -11.8308   19.4384 C   0  0  0  0  0  0  0  0  0  0  0  0
    1.8678  -11.5822   19.9710 C   0  0  0  0  0  0  0  0  0  0  0  0
    5.4426  -12.8398   19.6285 C   0  0  1  0  0  0  0  0  0  0  0  0
    1.1619  -16.6755   20.3501 C   0  0  0  0  0  0  0  0  0  0  0  0
    1.5997  -19.1387   20.4144 C   0  0  0  0  0  0  0  0  0  0  0  0
    1.8101  -18.9969   21.7808 C   0  0  0  0  0  0  0  0  0  0  0  0
   -0.4953  -21.8635   14.0521 F   0  0  0  0  0  0  0  0  0  0  0  0
    1.6995  -21.4517   13.5387 F   0  0  0  0  0  0  0  0  0  0  0  0
    1.0476  -23.4319   14.3893 F   0  0  0  0  0  0  0  0  0  0  0  0
    4.7728  -17.2865   16.8359 F   0  0  0  0  0  0  0  0  0  0  0  0
    5.5548  -15.1677   17.1635 F   0  0  0  0  0  0  0  0  0  0  0  0
    4.9075  -15.8599   15.1458 F   0  0  0  0  0  0  0  0  0  0  0  0
    5.6447  -14.2148   19.4891 F   0  0  0  0  0  0  0  0  0  0  0  0
    5.6925  -12.2814   18.4051 F   0  0  0  0  0  0  0  0  0  0  0  0
    6.3894  -12.3182   20.5004 F   0  0  0  0  0  0  0  0  0  0  0  0
    2.0486  -20.0626   22.5822 N   0  0  0  0  0  0  0  0  0  0  0  0
    0.4398  -14.3422   20.2783 N   0  0  0  0  0  0  0  0  0  0  0  0
   -1.9912  -11.3822   23.3191 N   0  0  0  0  0  0  0  0  0  0  0  0
    1.3460  -17.9492   19.6875 N   0  0  0  0  0  0  0  0  0  0  0  0
   -1.9201  -14.2476   20.4063 O   0  0  0  0  0  0  0  0  0  0  0  0
    1.4395  -16.6694   21.5663 O   0  0  0  0  0  0  0  0  0  0  0  0
  1  2  2  0
  2  3  1  0
  3  4  1  0
  4  5  2  0
  5  6  1  0
  6  7  2  0
  7  8  1  0
  8  9  2  0
  4  9  1  0
  7 11  1  0
 12 13  2  0
 13 14  1  0
 14 15  2  0
 15 16  1  0
 16 17  2  0
 12 17  1  0
 16 18  1  0
 10 19  1  0
 19 20  2  0
 21 22  1  0
 19 23  1  0
 22 23  2  0
 12 24  1  0
 23 25  1  0
 25 26  2  0
 26 27  1  0
 27 28  2  0
 28 29  1  0
 29 30  2  0
 25 30  1  0
 28 31  1  0
 24 32  1  0
  3 33  2  0
 33 34  1  0
 11 35  1  6
 11 36  1  0
 11 37  1  0
 18 38  1  1
 18 39  1  0
 18 40  1  0
 31 41  1  6
 31 42  1  0
 31 43  1  0
  1 44  1  0
 34 44  2  0
 24 45  1  1
 10 45  1  0
 20 46  1  0
 21 46  2  0
 33 47  1  0
 32 47  1  0
 10 48  2  0
 32 49  2  0
M  END
$$$$
