6XUM_30L_A_401
     RDKit          3D

 25 26  0  0  0  0  0  0  0  0999 V2000
   88.1664    4.9003   65.0501 N   0  0  0  0  0  0  0  0  0  0  0  0
   88.0168    3.6505   64.3166 C   0  0  0  0  0  0  0  0  0  0  0  0
   89.1283    3.3975   63.3904 C   0  0  0  0  0  0  0  0  0  0  0  0
   89.8414    4.3371   62.7136 C   0  0  0  0  0  0  0  0  0  0  0  0
   90.8893    4.0184   61.8579 C   0  0  0  0  0  0  0  0  0  0  0  0
   91.5856    5.0694   61.1864 N   0  0  0  0  0  0  0  0  0  0  0  0
   91.3442    6.2610   61.4640 O   0  0  0  0  0  0  0  0  0  0  0  0
   92.5195    4.7136   60.2351 O   0  0  0  0  0  0  0  0  0  0  0  0
   91.2539    2.7142   61.6572 C   0  0  0  0  0  0  0  0  0  0  0  0
   90.5361    1.7329   62.3409 C   0  0  0  0  0  0  0  0  0  0  0  0
   89.4936    2.0671   63.1910 C   0  0  0  0  0  0  0  0  0  0  0  0
   87.1674    5.4516   65.8776 C   0  0  0  0  0  0  0  0  0  0  0  0
   86.0797    4.8066   65.9350 O   0  0  0  0  0  0  0  0  0  0  0  0
   87.2569    6.6611   66.6562 C   0  0  0  0  0  0  0  0  0  0  0  0
   88.4977    7.3071   66.7377 C   0  0  0  0  0  0  0  0  0  0  0  0
   88.6813    8.4648   67.4559 C   0  0  0  0  0  0  0  0  0  0  0  0
   87.6469    9.0620   68.1430 C   0  0  0  0  0  0  0  0  0  0  0  0
   87.8686   10.1896   68.8302 F   0  0  0  0  0  0  0  0  0  0  0  0
   86.4186    8.4431   68.0760 C   0  0  0  0  0  0  0  0  0  0  0  0
   86.2345    7.2637   67.3436 C   0  0  0  0  0  0  0  0  0  0  0  0
   84.9768    6.7149   67.3313 O   0  0  0  0  0  0  0  0  0  0  0  0
   83.8591    7.4595   67.7404 C   0  0  0  0  0  0  0  0  0  0  0  0
   82.5755    6.6932   67.6265 C   0  0  0  0  0  0  0  0  0  0  0  0
   82.5461    5.5286   67.1088 O   0  0  0  0  0  0  0  0  0  0  0  0
   81.3774    7.2388   68.0862 O   0  0  0  0  0  0  0  0  0  0  0  0
  2  1  1  6
  2  3  1  0
  3  4  2  0
  4  5  1  0
  5  6  1  0
  6  7  2  0
  6  8  1  0
  5  9  2  0
  9 10  1  0
 10 11  2  0
  3 11  1  0
  1 12  1  0
 12 13  2  0
 12 14  1  0
 14 15  2  0
 15 16  1  0
 16 17  2  0
 17 18  1  0
 17 19  1  0
 14 20  1  0
 19 20  2  0
 20 21  1  0
 22 21  1  1
 22 23  1  0
 23 24  2  0
 23 25  1  0
M  CHG  2   6   1   8  -1
M  END
$$$$
