7UY4_SMI_A_302
     RDKit          3D

 50 52  0  0  0  0  0  0  0  0999 V2000
   -1.9351  -40.0273   38.3038 O   0  0  0  0  0  0  0  0  0  0  0  0
   -2.3857  -38.9230   37.5471 C   0  0  2  0  0  0  0  0  0  0  0  0
   -1.9988  -39.1459   36.0857 C   0  0  1  0  0  0  0  0  0  0  0  0
   -1.7469  -37.6263   38.0713 C   0  0  1  0  0  0  0  0  0  0  0  0
   -2.0755  -37.3950   39.5584 C   0  0  2  0  0  0  0  0  0  0  0  0
   -1.8208  -38.6928   40.3914 C   0  0  1  0  0  0  0  0  0  0  0  0
   -2.4330  -38.5057   41.6538 O   0  0  0  0  0  0  0  0  0  0  0  0
   -2.3996  -39.9462   39.6429 C   0  0  2  0  0  0  0  0  0  0  0  0
   -0.4152  -38.8364   40.5524 O   0  0  0  0  0  0  0  0  0  0  0  0
   -2.0538  -41.1366   40.3301 O   0  0  0  0  0  0  0  0  0  0  0  0
   -0.0872  -40.0330   41.2340 C   0  0  2  0  0  0  0  0  0  0  0  0
    1.4503  -40.1442   41.3779 C   0  0  1  0  0  0  0  0  0  0  0  0
    1.9743  -38.9632   42.1034 N   0  0  0  0  0  0  0  0  0  0  0  0
    2.4429  -37.9203   41.1846 C   0  0  1  0  0  0  0  0  0  0  0  0
    1.8144  -41.4608   42.1199 C   0  0  1  0  0  0  0  0  0  0  0  0
    1.3276  -41.4157   43.4390 O   0  0  0  0  0  0  0  0  0  0  0  0
    1.2312  -42.6822   41.3701 C   0  0  1  0  0  0  0  0  0  0  0  0
    1.6822  -43.9561   41.9799 N   0  0  0  0  0  0  0  0  0  0  0  0
    0.8092  -44.5087   43.0238 C   0  0  2  0  0  0  0  0  0  0  0  0
   -0.3045  -42.5646   41.1808 C   0  0  2  0  0  0  0  0  0  0  0  0
   -0.7586  -43.6520   40.4152 O   0  0  0  0  0  0  0  0  0  0  0  0
   -0.6470  -41.2479   40.4558 C   0  0  1  0  0  0  0  0  0  0  0  0
   -3.4094  -36.9467   39.6886 O   0  0  0  0  0  0  0  0  0  0  0  0
   -1.2273  -36.3710   40.0200 O   0  0  0  0  0  0  0  0  0  0  0  0
   -3.4968  -38.8504   37.5748 H   0  0  0  0  0  0  0  0  0  0  0  0
   -0.9453  -38.8390   35.9098 H   0  0  0  0  0  0  0  0  0  0  0  0
   -2.1016  -40.2221   35.8305 H   0  0  0  0  0  0  0  0  0  0  0  0
   -2.6650  -38.5610   35.4160 H   0  0  0  0  0  0  0  0  0  0  0  0
   -0.6420  -37.6926   37.9495 H   0  0  0  0  0  0  0  0  0  0  0  0
   -2.1039  -36.7587   37.4737 H   0  0  0  0  0  0  0  0  0  0  0  0
   -1.9423  -39.0241   42.3422 H   0  0  0  0  0  0  0  0  0  0  0  0
   -3.5115  -39.8987   39.6494 H   0  0  0  0  0  0  0  0  0  0  0  0
   -0.5177  -40.0126   42.2609 H   0  0  0  0  0  0  0  0  0  0  0  0
    1.8971  -40.2075   40.3566 H   0  0  0  0  0  0  0  0  0  0  0  0
    2.8042  -39.2285   42.6837 H   0  0  0  0  0  0  0  0  0  0  0  0
    2.2167  -36.9226   41.6166 H   0  0  0  0  0  0  0  0  0  0  0  0
    3.5424  -37.9957   41.0327 H   0  0  0  0  0  0  0  0  0  0  0  0
    1.9287  -37.9896   40.2044 H   0  0  0  0  0  0  0  0  0  0  0  0
    2.9263  -41.5702   42.1178 H   0  0  0  0  0  0  0  0  0  0  0  0
    1.9996  -40.9353   43.9891 H   0  0  0  0  0  0  0  0  0  0  0  0
    1.6779  -42.6485   40.3481 H   0  0  0  0  0  0  0  0  0  0  0  0
    1.7589  -44.6773   41.2243 H   0  0  0  0  0  0  0  0  0  0  0  0
    0.6156  -45.5890   42.8524 H   0  0  0  0  0  0  0  0  0  0  0  0
   -0.1496  -43.9610   43.0918 H   0  0  0  0  0  0  0  0  0  0  0  0
    1.3176  -44.4099   44.0055 H   0  0  0  0  0  0  0  0  0  0  0  0
   -0.8051  -42.5583   42.1778 H   0  0  0  0  0  0  0  0  0  0  0  0
   -1.3331  -43.2802   39.6959 H   0  0  0  0  0  0  0  0  0  0  0  0
   -0.1754  -41.2896   39.4458 H   0  0  0  0  0  0  0  0  0  0  0  0
   -3.8191  -36.8848   38.7897 H   0  0  0  0  0  0  0  0  0  0  0  0
   -1.4733  -36.1819   40.9634 H   0  0  0  0  0  0  0  0  0  0  0  0
  1  2  1  0
  2  3  1  0
  2  4  1  0
  4  5  1  0
  5  6  1  0
  6  7  1  1
  8  1  1  0
  6  8  1  0
  6  9  1  0
  8 10  1  0
 11  9  1  0
 11 12  1  0
 12 13  1  0
 13 14  1  0
 12 15  1  0
 15 16  1  0
 15 17  1  0
 17 18  1  0
 18 19  1  0
 17 20  1  0
 20 21  1  0
 22 10  1  0
 11 22  1  0
 20 22  1  0
  5 23  1  6
  5 24  1  0
  2 25  1  6
  3 26  1  1
  3 27  1  0
  3 28  1  0
  4 29  1  1
  4 30  1  0
  7 31  1  0
  8 32  1  6
 11 33  1  1
 12 34  1  6
 13 35  1  0
 14 36  1  1
 14 37  1  0
 14 38  1  0
 15 39  1  1
 16 40  1  0
 17 41  1  6
 18 42  1  0
 19 43  1  6
 19 44  1  0
 19 45  1  0
 20 46  1  1
 21 47  1  0
 22 48  1  6
 23 49  1  0
 24 50  1  0
M  END
