
     RDKit          3D

 42 47  0  0  0  0  0  0  0  0999 V2000
   11.4944  -15.4516    6.2811 C   0  0  0  0  0  0  0  0  0  0  0  0
   10.8993  -19.1371    6.0196 C   0  0  0  0  0  0  0  0  0  0  0  0
   12.0704  -19.9498    5.9578 C   0  0  0  0  0  0  0  0  0  0  0  0
    6.2740  -16.8639    5.9734 C   0  0  0  0  0  0  0  0  0  0  0  0
    6.9561  -15.6434    6.0351 C   0  0  0  0  0  0  0  0  0  0  0  0
    4.2597  -13.1431    5.1370 C   0  0  0  0  0  0  0  0  0  0  0  0
    3.0682  -11.5814    3.5322 C   0  0  0  0  0  0  0  0  0  0  0  0
   14.2969  -12.9690    5.3143 C   0  0  0  0  0  0  0  0  0  0  0  0
   13.0102  -13.4118    6.0755 C   0  0  1  0  0  0  0  0  0  0  0  0
   12.8793  -13.1852    7.5743 C   0  0  0  0  0  0  0  0  0  0  0  0
   13.1568  -14.3859    8.3718 C   0  0  0  0  0  0  0  0  0  0  0  0
   11.4445  -16.6921    5.6756 C   0  0  0  0  0  0  0  0  0  0  0  0
   10.5379  -17.7894    5.9394 C   0  0  0  0  0  0  0  0  0  0  0  0
    9.8399  -20.0119    6.2096 C   0  0  0  0  0  0  0  0  0  0  0  0
   11.6871  -21.2669    6.1028 C   0  0  0  0  0  0  0  0  0  0  0  0
    8.2952  -18.3898    6.2633 C   0  0  0  0  0  0  0  0  0  0  0  0
    6.2986  -14.4400    5.7688 C   0  0  0  0  0  0  0  0  0  0  0  0
    4.9488  -14.4092    5.4184 C   0  0  0  0  0  0  0  0  0  0  0  0
    4.0701  -12.7418    3.6974 C   0  0  0  0  0  0  0  0  0  0  0  0
    2.4793   -9.3593    4.2927 C   0  0  0  0  0  0  0  0  0  0  0  0
    3.0763  -11.0677    5.8917 C   0  0  0  0  0  0  0  0  0  0  0  0
    3.7800  -12.3773    6.1344 C   0  0  0  0  0  0  0  0  0  0  0  0
    4.2758  -15.6285    5.3509 C   0  0  0  0  0  0  0  0  0  0  0  0
    4.9191  -16.8357    5.6301 C   0  0  0  0  0  0  0  0  0  0  0  0
   12.5309  -16.6601    4.7663 C   0  0  0  0  0  0  0  0  0  0  0  0
   12.2865  -12.4230    5.1122 C   0  0  0  0  0  0  0  0  0  0  0  0
   14.0466  -12.0834    1.5689 C   0  0  0  0  0  0  0  0  0  0  0  0
   15.0020  -13.2572    1.6506 C   0  0  0  0  0  0  0  0  0  0  0  0
    7.0039  -13.3032    5.8533 F   0  0  0  0  0  0  0  0  0  0  0  0
    2.9786  -15.6667    5.0038 F   0  0  0  0  0  0  0  0  0  0  0  0
   13.4586  -12.4831    4.1791 N   0  0  0  0  0  0  0  0  0  0  0  0
   13.3483  -15.3428    8.9969 N   0  0  0  0  0  0  0  0  0  0  0  0
   12.5942  -14.8087    5.7665 N   0  0  0  0  0  0  0  0  0  0  0  0
   10.3275  -21.2884    6.2486 N   0  0  0  0  0  0  0  0  0  0  0  0
    8.5407  -19.7051    6.3286 N   0  0  0  0  0  0  0  0  0  0  0  0
    6.9472  -18.0395    6.3186 N   0  0  0  0  0  0  0  0  0  0  0  0
    3.3054  -10.5366    4.5401 N   0  0  0  0  0  0  0  0  0  0  0  0
    9.2325  -17.4436    6.0883 N   0  0  0  0  0  0  0  0  0  0  0  0
   13.1847  -15.4960    4.7732 N   0  0  0  0  0  0  0  0  0  0  0  0
   15.1546  -10.7241    3.5277 O   0  0  0  0  0  0  0  0  0  0  0  0
   12.7070  -10.3475    3.0400 O   0  0  0  0  0  0  0  0  0  0  0  0
   13.8548  -11.2251    3.1261 S   0  0  0  0  0  6  0  0  0  0  0  0
  2  3  4  0
  4  5  4  0
  8  9  1  0
  9 10  1  1
 10 11  1  0
  1 12  4  0
 12 13  1  0
  2 13  4  0
  2 14  4  0
  3 15  4  0
  5 17  4  0
  6 18  1  0
 17 18  4  0
  6 19  1  0
  7 19  1  0
 21 22  1  0
  6 22  2  0
 18 23  4  0
 23 24  4  0
  4 24  4  0
 12 25  4  0
  9 26  1  0
 27 28  1  0
 17 29  1  0
 23 30  1  0
  8 31  1  0
 26 31  1  0
 11 32  3  0
  9 33  1  0
  1 33  4  0
 15 34  4  0
 14 34  4  0
 16 35  4  0
 14 35  4  0
 16 36  1  0
  4 36  1  0
 21 37  1  0
 20 37  1  0
  7 37  1  0
 13 38  4  0
 16 38  4  0
 25 39  4  0
 33 39  4  0
 41 42  2  0
 40 42  2  0
 27 42  1  0
 31 42  1  0
M  END
