7CNS_PMV_A_501
     RDKit          3D

 27 26  0  0  0  0  0  0  0  0999 V2000
   -4.0598   -3.6388   -5.7285 O   0  0  0  0  0  0  0  0  0  0  0  0
   -4.5971   -2.8761   -4.3127 P   0  0  1  0  0  5  0  0  0  0  0  0
   -4.0937   -3.7415   -2.9444 O   0  0  0  0  0  0  0  0  0  0  0  0
   -3.9915   -1.4927   -4.2544 O   0  0  0  0  0  0  0  0  0  0  0  0
   -6.2966   -2.7210   -4.3276 O   0  0  0  0  0  0  0  0  0  0  0  0
   -6.6455   -1.4956   -3.7286 C   0  0  0  0  0  0  0  0  0  0  0  0
   -6.6455   -1.6784   -2.2034 C   0  0  0  0  0  0  0  0  0  0  0  0
   -5.4773   -2.5222   -1.6187 C   0  0  2  0  0  0  0  0  0  0  0  0
   -6.0242   -3.2549   -0.5433 O   0  0  0  0  0  0  0  0  0  0  0  0
   -4.3544   -1.5914   -1.0969 C   0  0  0  0  0  0  0  0  0  0  0  0
   -4.9302   -3.5057   -2.6933 C   0  0  0  0  0  0  0  0  0  0  0  0
   -5.4339   -3.2137   -4.0766 C   0  0  0  0  0  0  0  0  0  0  0  0
   -5.5557   -1.8963   -4.5077 O   0  0  0  0  0  0  0  0  0  0  0  0
   -5.7285   -4.1601   -4.8549 O   0  0  0  0  0  0  0  0  0  0  0  0
   -4.1362   -4.6099   -5.5516 H   0  0  0  0  0  0  0  0  0  0  0  0
   -4.1642   -4.6970   -3.1944 H   0  0  0  0  0  0  0  0  0  0  0  0
   -5.9011   -0.7165   -3.9976 H   0  0  0  0  0  0  0  0  0  0  0  0
   -7.6617   -1.1881   -4.0553 H   0  0  0  0  0  0  0  0  0  0  0  0
   -7.6102   -2.1487   -1.9092 H   0  0  0  0  0  0  0  0  0  0  0  0
   -6.6290   -0.6702   -1.7324 H   0  0  0  0  0  0  0  0  0  0  0  0
   -5.2862   -3.6673   -0.0234 H   0  0  0  0  0  0  0  0  0  0  0  0
   -3.5995   -2.1657   -0.5195 H   0  0  0  0  0  0  0  0  0  0  0  0
   -4.7758   -0.8140   -0.4243 H   0  0  0  0  0  0  0  0  0  0  0  0
   -3.8217   -1.0944   -1.9343 H   0  0  0  0  0  0  0  0  0  0  0  0
   -3.8189   -3.4645   -2.7053 H   0  0  0  0  0  0  0  0  0  0  0  0
   -5.2192   -4.5486   -2.4449 H   0  0  0  0  0  0  0  0  0  0  0  0
   -5.8842   -1.6838   -5.4419 H   0  0  0  0  0  0  0  0  0  0  0  0
  2  1  1  6
  2  3  1  0
  2  4  2  0
  2  5  1  0
  5  6  1  0
  6  7  1  0
  7  8  1  0
  8  9  1  1
  8 10  1  0
  8 11  1  0
 11 12  1  0
 12 13  1  0
 12 14  2  0
  1 15  1  0
  3 16  1  0
  6 17  1  0
  6 18  1  0
  7 19  1  0
  7 20  1  0
  9 21  1  0
 10 22  1  0
 10 23  1  0
 10 24  1  0
 11 25  1  0
 11 26  1  0
 13 27  1  0
M  END
