7NFB_GEN_A_601
     RDKit          3D

 30 32  0  0  0  0  0  0  0  0999 V2000
   22.4263   -9.1729   21.9028 C   0  0  0  0  0  0  0  0  0  0  0  0
   23.5841   -9.4712   21.1886 C   0  0  0  0  0  0  0  0  0  0  0  0
   24.7076   -9.9401   21.8661 O   0  0  0  0  0  0  0  0  0  0  0  0
   23.6057   -9.3069   19.8014 C   0  0  0  0  0  0  0  0  0  0  0  0
   22.4755   -8.8528   19.1106 C   0  0  0  0  0  0  0  0  0  0  0  0
   22.5666   -8.8207   17.7160 O   0  0  0  0  0  0  0  0  0  0  0  0
   21.3052   -8.4847   19.8397 C   0  0  0  0  0  0  0  0  0  0  0  0
   20.1524   -7.8962   19.2627 C   0  0  0  0  0  0  0  0  0  0  0  0
   20.1318   -7.5567   18.0499 O   0  0  0  0  0  0  0  0  0  0  0  0
   19.0272   -7.6274   20.0663 C   0  0  0  0  0  0  0  0  0  0  0  0
   19.1091   -7.8974   21.4371 C   0  0  0  0  0  0  0  0  0  0  0  0
   20.2182   -8.3918   21.9666 O   0  0  0  0  0  0  0  0  0  0  0  0
   21.2956   -8.6805   21.2465 C   0  0  0  0  0  0  0  0  0  0  0  0
   17.7793   -7.0523   19.5015 C   0  0  0  0  0  0  0  0  0  0  0  0
   17.3534   -7.3997   18.2070 C   0  0  0  0  0  0  0  0  0  0  0  0
   16.1737   -6.8629   17.6826 C   0  0  0  0  0  0  0  0  0  0  0  0
   15.4037   -5.9779   18.4430 C   0  0  0  0  0  0  0  0  0  0  0  0
   14.2310   -5.4506   17.9071 O   0  0  0  0  0  0  0  0  0  0  0  0
   15.8177   -5.6312   19.7357 C   0  0  0  0  0  0  0  0  0  0  0  0
   16.9965   -6.1666   20.2633 C   0  0  0  0  0  0  0  0  0  0  0  0
   22.4088   -9.3111   22.9771 H   0  0  0  0  0  0  0  0  0  0  0  0
   25.5638  -10.1720   21.3759 H   0  0  0  0  0  0  0  0  0  0  0  0
   24.4996   -9.5656   19.2471 H   0  0  0  0  0  0  0  0  0  0  0  0
   21.8004   -8.6031   17.0967 H   0  0  0  0  0  0  0  0  0  0  0  0
   18.2638   -7.7036   22.0851 H   0  0  0  0  0  0  0  0  0  0  0  0
   17.9253   -8.0976   17.6083 H   0  0  0  0  0  0  0  0  0  0  0  0
   15.8552   -7.1387   16.6852 H   0  0  0  0  0  0  0  0  0  0  0  0
   13.6430   -4.8193   18.4387 H   0  0  0  0  0  0  0  0  0  0  0  0
   15.2278   -4.9464   20.3317 H   0  0  0  0  0  0  0  0  0  0  0  0
   17.3048   -5.8797   21.2612 H   0  0  0  0  0  0  0  0  0  0  0  0
  1  2  2  0
  2  3  1  0
  2  4  1  0
  4  5  2  0
  5  6  1  0
  5  7  1  0
  7  8  1  0
  8  9  2  0
  8 10  1  0
 10 11  2  0
 11 12  1  0
  1 13  1  0
  7 13  2  0
 12 13  1  0
 10 14  1  0
 14 15  2  0
 15 16  1  0
 16 17  2  0
 17 18  1  0
 17 19  1  0
 14 20  1  0
 19 20  2  0
  1 21  1  0
  3 22  1  0
  4 23  1  0
  6 24  1  0
 11 25  1  0
 15 26  1  0
 16 27  1  0
 18 28  1  0
 19 29  1  0
 20 30  1  0
M  END
