6XG5_TOP_A_303
     RDKit          3D

 21 22  0  0  0  0  0  0  0  0999 V2000
  -10.4989   27.4566   16.8109 C   0  0  0  0  0  0  0  0  0  0  0  0
  -10.0930   26.9400   17.9846 N   0  0  0  0  0  0  0  0  0  0  0  0
   -8.7975   26.5647   18.0836 C   0  0  0  0  0  0  0  0  0  0  0  0
   -8.3775   26.0505   19.2410 N   0  0  0  0  0  0  0  0  0  0  0  0
   -7.9025   26.6591   17.0870 N   0  0  0  0  0  0  0  0  0  0  0  0
   -8.3155   27.2125   15.9276 C   0  0  0  0  0  0  0  0  0  0  0  0
   -7.3840   27.3292   14.9573 N   0  0  0  0  0  0  0  0  0  0  0  0
   -9.6609   27.6329   15.7201 C   0  0  0  0  0  0  0  0  0  0  0  0
  -10.1135   28.3035   14.4186 C   0  0  0  0  0  0  0  0  0  0  0  0
  -11.5828   28.6521   14.2834 C   0  0  0  0  0  0  0  0  0  0  0  0
  -12.1522   29.6996   15.0045 C   0  0  0  0  0  0  0  0  0  0  0  0
  -13.5152   29.9729   14.9195 C   0  0  0  0  0  0  0  0  0  0  0  0
  -14.1718   30.9358   15.6377 O   0  0  0  0  0  0  0  0  0  0  0  0
  -13.3810   31.8501   16.3964 C   0  0  0  0  0  0  0  0  0  0  0  0
  -14.3348   29.2085   14.0843 C   0  0  0  0  0  0  0  0  0  0  0  0
  -15.6782   29.4963   13.9293 O   0  0  0  0  0  0  0  0  0  0  0  0
  -16.5154   29.1617   15.0240 C   0  0  0  0  0  0  0  0  0  0  0  0
  -13.7503   28.2030   13.3153 C   0  0  0  0  0  0  0  0  0  0  0  0
  -14.6264   27.5207   12.5253 O   0  0  0  0  0  0  0  0  0  0  0  0
  -14.0879   26.6397   11.5413 C   0  0  0  0  0  0  0  0  0  0  0  0
  -12.3891   27.9314   13.4129 C   0  0  0  0  0  0  0  0  0  0  0  0
  1  2  2  0
  2  3  1  0
  3  4  1  0
  3  5  2  0
  5  6  1  0
  6  7  1  0
  1  8  1  0
  6  8  2  0
  8  9  1  0
  9 10  1  0
 10 11  2  0
 11 12  1  0
 12 13  1  0
 13 14  1  0
 12 15  2  0
 15 16  1  0
 16 17  1  0
 15 18  1  0
 18 19  1  0
 19 20  1  0
 10 21  1  0
 18 21  2  0
M  END
