7EBG_J0L_A_502
     RDKit          3D

 14 15  0  0  0  0  0  0  0  0999 V2000
  -14.2076    8.8554   26.7185 C   0  0  0  0  0  0  0  0  0  0  0  0
  -13.8752    7.6166   27.2417 C   0  0  0  0  0  0  0  0  0  0  0  0
  -14.6734    7.0516   28.2118 C   0  0  0  0  0  0  0  0  0  0  0  0
  -15.3173    9.5677   27.1250 C   0  0  0  0  0  0  0  0  0  0  0  0
  -16.1030    8.9790   28.1003 C   0  0  0  0  0  0  0  0  0  0  0  0
  -15.7859    7.7458   28.6318 C   0  0  0  0  0  0  0  0  0  0  0  0
  -16.7976    7.3859   29.6372 C   0  0  2  0  0  0  0  0  0  0  0  0
  -17.7400    8.5335   29.6413 C   0  0  0  0  0  0  0  0  0  0  0  0
  -16.2076    7.1034   30.9994 C   0  0  0  0  0  0  0  0  0  0  0  0
  -17.6112    6.1686   29.2456 C   0  0  0  0  0  0  0  0  0  0  0  0
  -14.8007   11.5350   25.6247 C   0  0  0  0  0  0  0  0  0  0  0  0
  -15.6411   10.8378   26.5757 N   0  0  0  0  0  0  0  0  0  0  0  0
  -17.2908    9.4929   28.6919 N   0  0  0  0  0  0  0  0  0  0  0  0
  -18.7685    8.6194   30.3795 O   0  0  0  0  0  0  0  0  0  0  0  0
  1  2  2  0
  2  3  1  0
  1  4  1  0
  4  5  2  0
  3  6  2  0
  5  6  1  0
  6  7  1  0
  7  8  1  1
  9  7  1  1
 10  7  1  6
 11 12  1  6
  4 12  1  0
  5 13  1  0
  8 13  1  0
  8 14  2  0
M  END
$$$$
