8AUH_L9I_B_403
     RDKit          3D

 20 19  0  0  0  0  0  0  0  0999 V2000
   19.4832   20.1804  -24.2988 N   0  0  0  0  0  0  0  0  0  0  0  0
   19.4442   18.2749  -22.8498 C   0  0  0  0  0  0  0  0  0  0  0  0
   19.3876   17.1032  -23.0372 O   0  0  0  0  0  0  0  0  0  0  0  0
   17.4680   18.8233  -24.4282 C   0  0  0  0  0  0  0  0  0  0  0  0
   17.8424   19.9540  -26.4440 C   0  0  0  0  0  0  0  0  0  0  0  0
   17.3787   21.1758  -25.6570 C   0  0  0  0  0  0  0  0  0  0  0  0
   20.1239   18.8687  -21.6230 C   0  0  0  0  0  0  0  0  0  0  0  0
   18.8383   19.1907  -23.8856 C   0  0  0  0  0  0  0  0  0  0  0  0
   17.3573   18.8054  -25.8069 O   0  0  0  0  0  0  0  0  0  0  0  0
   18.9097   20.9880  -25.2729 O   0  0  0  0  0  0  0  0  0  0  0  0
   16.5397   18.5353  -23.7365 O   0  0  0  0  0  0  0  0  0  0  0  0
   17.4607   20.0016  -27.4425 H   0  0  0  0  0  0  0  0  0  0  0  0
   18.9114   19.9276  -26.4841 H   0  0  0  0  0  0  0  0  0  0  0  0
   16.3095   21.1932  -25.6228 H   0  0  0  0  0  0  0  0  0  0  0  0
   17.7668   21.1269  -24.6611 H   0  0  0  0  0  0  0  0  0  0  0  0
   17.7348   22.0643  -26.1352 H   0  0  0  0  0  0  0  0  0  0  0  0
   20.4924   18.0790  -21.0022 H   0  0  0  0  0  0  0  0  0  0  0  0
   20.9388   19.4895  -21.9321 H   0  0  0  0  0  0  0  0  0  0  0  0
   19.4178   19.4549  -21.0728 H   0  0  0  0  0  0  0  0  0  0  0  0
   19.3752   21.7341  -25.5964 H   0  0  0  0  0  0  0  0  0  0  0  0
  2  3  2  0
  5  6  1  0
  2  7  1  0
  1  8  2  3
  4  8  1  0
  2  8  1  0
  4  9  1  0
  5  9  1  0
  1 10  1  0
  4 11  2  0
  5 12  1  0
  5 13  1  0
  6 14  1  0
  6 15  1  0
  6 16  1  0
  7 17  1  0
  7 18  1  0
  7 19  1  0
 10 20  1  0
M  END
