7OCB_V88_B_301
     RDKit          3D

 41 45  0  0  0  0  0  0  0  0999 V2000
   -4.9680  -43.9130   -9.1450 N   0  0  0  0  0  0  0  0  0  0  0  0
   -4.3220  -37.1300   -8.6760 N   0  0  0  0  0  0  0  0  0  0  0  0
   -6.8480  -39.3370   -7.6230 C   0  0  0  0  0  0  0  0  0  0  0  0
   -6.2460  -41.7520   -8.1250 C   0  0  0  0  0  0  0  0  0  0  0  0
   -7.1390  -42.8920   -8.5650 C   0  0  0  0  0  0  0  0  0  0  0  0
   -6.3900  -43.8150   -9.5060 C   0  0  0  0  0  0  0  0  0  0  0  0
   -4.3260  -45.1110   -9.7300 C   0  0  0  0  0  0  0  0  0  0  0  0
   -4.9090  -46.4150   -9.1830 C   0  0  0  0  0  0  0  0  0  0  0  0
   -5.4880  -37.5680   -8.1590 C   0  0  0  0  0  0  0  0  0  0  0  0
   -3.5110  -38.3290  -10.6490 C   0  0  0  0  0  0  0  0  0  0  0  0
   -2.3960  -36.3130  -11.4080 C   0  0  0  0  0  0  0  0  0  0  0  0
   -9.7710  -36.4820   -6.5350 C   0  0  0  0  0  0  0  0  0  0  0  0
  -10.5790  -34.2720   -6.1050 C   0  0  0  0  0  0  0  0  0  0  0  0
  -11.8570  -33.6910   -5.5700 C   0  0  0  0  0  0  0  0  0  0  0  0
  -13.0790  -36.4170   -3.0260 C   0  0  0  0  0  0  0  0  0  0  0  0
  -14.7350  -38.3920   -2.6210 C   0  0  0  0  0  0  0  0  0  0  0  0
  -16.2110  -38.9370   -4.4230 C   0  0  0  0  0  0  0  0  0  0  0  0
   -7.0890  -40.6940   -7.5710 N   0  0  0  0  0  0  0  0  0  0  0  0
  -11.7370  -39.4440   -5.6860 C   0  0  0  0  0  0  0  0  0  0  0  0
  -11.3160  -38.0740   -5.8380 O   0  0  0  0  0  0  0  0  0  0  0  0
  -10.0740  -37.8450   -6.3560 C   0  0  0  0  0  0  0  0  0  0  0  0
   -4.7640  -43.7140   -7.6970 C   0  0  0  0  0  0  0  0  0  0  0  0
   -5.1580  -42.2880   -7.2400 C   0  0  0  0  0  0  0  0  0  0  0  0
   -3.2860  -38.0080   -9.2050 C   0  0  0  0  0  0  0  0  0  0  0  0
   -3.8860  -37.4550  -12.8770 C   0  0  0  0  0  0  0  0  0  0  0  0
   -7.5470  -37.0530   -7.2670 C   0  0  0  0  0  0  0  0  0  0  0  0
   -8.5410  -36.0930   -6.9790 C   0  0  0  0  0  0  0  0  0  0  0  0
   -9.1450  -38.8030   -6.6520 C   0  0  0  0  0  0  0  0  0  0  0  0
  -12.2730  -34.3220   -4.2730 C   0  0  0  0  0  0  0  0  0  0  0  0
  -14.1730  -37.3800   -3.3860 C   0  0  0  0  0  0  0  0  0  0  0  0
  -15.7500  -39.1670   -3.1440 C   0  0  0  0  0  0  0  0  0  0  0  0
  -15.6500  -37.9370   -5.2000 C   0  0  0  0  0  0  0  0  0  0  0  0
   -7.8510  -38.4260   -7.1270 C   0  0  0  0  0  0  0  0  0  0  0  0
  -14.6270  -37.1530   -4.6800 C   0  0  0  0  0  0  0  0  0  0  0  0
  -13.9210  -35.9890   -5.3050 C   0  0  0  0  0  0  0  0  0  0  0  0
   -2.8180  -45.0600   -9.5500 C   0  0  0  0  0  0  0  0  0  0  0  0
   -5.6990  -38.8980   -8.1530 N   0  0  0  0  0  0  0  0  0  0  0  0
   -3.6190  -37.1270  -11.4790 N   0  0  0  0  0  0  0  0  0  0  0  0
   -6.3370  -36.6200   -7.7300 N   0  0  0  0  0  0  0  0  0  0  0  0
  -12.7930  -35.6940   -4.3570 N   0  0  0  0  0  0  0  0  0  0  0  0
  -10.8250  -35.6720   -6.2580 O   0  0  0  0  0  0  0  0  0  0  0  0
  4  5  1  0
  1  6  1  0
  5  6  1  0
  1  7  1  0
  7  8  1  0
  2  9  1  0
 13 14  1  0
  4 18  1  0
  3 18  1  0
 19 20  1  0
 12 21  1  0
 20 21  1  0
  1 22  1  0
  4 23  1  0
 22 23  1  0
 10 24  1  0
  2 24  1  0
 26 27  1  0
 12 27  2  0
 21 28  2  0
 14 29  1  0
 15 30  1  0
 16 30  2  0
 17 31  2  0
 16 31  1  0
 17 32  1  0
  3 33  2  0
 26 33  1  0
 28 33  1  0
 32 34  2  0
 30 34  1  0
 34 35  1  0
  7 36  1  0
  9 37  2  0
  3 37  1  0
 25 38  1  0
 11 38  1  0
 10 38  1  0
  9 39  1  0
 26 39  2  0
 35 40  1  0
 29 40  1  0
 15 40  1  0
 12 41  1  0
 13 41  1  0
M  END
$$$$
