7P1F_KFN_B_501
     RDKit          3D

 17 17  0  0  0  0  0  0  0  0999 V2000
   30.5749  -15.0327   35.6894 C   0  0  0  0  0  0  0  0  0  0  0  0
   29.0728  -13.1009   35.6257 C   0  0  0  0  0  0  0  0  0  0  0  0
   28.0321  -12.2319   35.0574 C   0  0  1  0  0  0  0  0  0  0  0  0
   27.5777  -12.6366   33.6978 C   0  0  2  0  0  0  0  0  0  0  0  0
   28.5193  -13.5757   32.9736 C   0  0  2  0  0  0  0  0  0  0  0  0
   27.7369  -14.1430   31.8228 C   0  0  1  0  0  0  0  0  0  0  0  0
   28.5447  -15.0337   30.9202 C   0  0  1  0  0  0  0  0  0  0  0  0
   27.7852  -15.3871   29.6525 C   0  0  0  0  0  0  0  0  0  0  0  0
   27.3563  -11.5263   32.8775 O   0  0  0  0  0  0  0  0  0  0  0  0
   31.0813  -16.1661   35.0486 O   0  0  0  0  0  0  0  0  0  0  0  0
   31.0245  -14.7163   36.8209 O   0  0  0  0  0  0  0  0  0  0  0  0
   26.9602  -12.1713   35.9496 O   0  0  0  0  0  0  0  0  0  0  0  0
   28.9912  -14.5832   33.8498 O   0  0  0  0  0  0  0  0  0  0  0  0
   29.5253  -14.2051   35.0617 C   0  0  0  0  0  0  0  0  0  0  0  0
   26.6475  -14.8730   32.2915 O   0  0  0  0  0  0  0  0  0  0  0  0
   29.8145  -14.5763   30.6574 O   0  0  0  0  0  0  0  0  0  0  0  0
   28.5851  -16.2834   28.9406 O   0  0  0  0  0  0  0  0  0  0  0  0
  2  3  1  0
  3  4  1  0
  4  5  1  0
  5  6  1  0
  6  7  1  0
  7  8  1  0
  4  9  1  6
  1 10  1  0
  1 11  2  0
  3 12  1  1
  5 13  1  1
  1 14  1  0
  2 14  2  0
 13 14  1  0
  6 15  1  1
  7 16  1  6
  8 17  1  0
M  END
$$$$
