7LJN_GTP_A_501
     RDKit          3D

 32 34  0  0  0  0  0  0  0  0999 V2000
  -15.9706   39.0996  -43.8973 P   0  0  2  0  0  5  0  0  0  0  0  0
  -15.3218   37.7526  -43.6857 O   0  0  0  0  0  0  0  0  0  0  0  0
  -17.3173   38.8828  -44.9262 O   0  0  0  0  0  0  0  0  0  0  0  0
  -14.8721   40.0976  -44.7308 O   0  0  0  0  0  0  0  0  0  0  0  0
  -16.4548   39.8258  -42.4553 O   0  0  0  0  0  0  0  0  0  0  0  0
  -18.1335   39.7710  -42.2761 P   0  0  1  0  0  5  0  0  0  0  0  0
  -18.8214   40.8740  -43.0360 O   0  0  0  0  0  0  0  0  0  0  0  0
  -18.7643   38.2956  -42.8381 O   0  0  0  0  0  0  0  0  0  0  0  0
  -18.5545   39.8559  -40.6203 O   0  0  0  0  0  0  0  0  0  0  0  0
  -17.8082   38.5663  -39.8020 P   0  0  1  0  0  5  0  0  0  0  0  0
  -18.0602   38.7952  -38.3359 O   0  0  0  0  0  0  0  0  0  0  0  0
  -18.5678   37.1280  -40.3195 O   0  0  0  0  0  0  0  0  0  0  0  0
  -16.1935   38.4344  -40.2020 O   0  0  0  0  0  0  0  0  0  0  0  0
  -15.7488   37.1407  -40.3849 C   0  0  0  0  0  0  0  0  0  0  0  0
  -15.1433   36.5445  -39.1151 C   0  0  1  0  0  0  0  0  0  0  0  0
  -15.8986   36.8638  -38.0223 O   0  0  0  0  0  0  0  0  0  0  0  0
  -15.1597   35.0445  -39.2720 C   0  0  1  0  0  0  0  0  0  0  0  0
  -13.9701   34.5011  -38.7739 O   0  0  0  0  0  0  0  0  0  0  0  0
  -16.2771   34.6674  -38.3051 C   0  0  1  0  0  0  0  0  0  0  0  0
  -16.0834   33.3730  -37.8367 O   0  0  0  0  0  0  0  0  0  0  0  0
  -16.0427   35.7254  -37.2401 C   0  0  2  0  0  0  0  0  0  0  0  0
  -17.1054   35.8514  -36.2978 N   0  0  0  0  0  0  0  0  0  0  0  0
  -18.3699   36.2727  -36.5543 C   0  0  0  0  0  0  0  0  0  0  0  0
  -19.0986   36.2635  -35.4231 N   0  0  0  0  0  0  0  0  0  0  0  0
  -18.3294   35.8400  -34.4186 C   0  0  0  0  0  0  0  0  0  0  0  0
  -18.4990   35.6210  -33.0549 C   0  0  0  0  0  0  0  0  0  0  0  0
  -19.6383   35.8577  -32.5609 O   0  0  0  0  0  0  0  0  0  0  0  0
  -17.5038   35.1745  -32.2703 N   0  0  0  0  0  0  0  0  0  0  0  0
  -16.2972   34.9344  -32.8476 C   0  0  0  0  0  0  0  0  0  0  0  0
  -15.2196   34.4561  -32.0238 N   0  0  0  0  0  0  0  0  0  0  0  0
  -16.1035   35.1379  -34.1681 N   0  0  0  0  0  0  0  0  0  0  0  0
  -17.0884   35.5879  -34.9864 C   0  0  0  0  0  0  0  0  0  0  0  0
  1  2  2  0
  1  3  1  6
  1  4  1  0
  1  5  1  0
  6  5  1  0
  6  7  2  0
  6  8  1  6
  6  9  1  0
 10  9  1  0
 10 11  2  0
 10 12  1  6
 10 13  1  0
 14 13  1  1
 15 14  1  0
 15 16  1  1
 15 17  1  0
 17 18  1  1
 17 19  1  0
 19 20  1  1
 16 21  1  0
 19 21  1  0
 21 22  1  1
 22 23  1  0
 23 24  2  0
 24 25  1  0
 25 26  1  0
 26 27  2  0
 26 28  1  0
 28 29  1  0
 29 30  1  0
 29 31  2  0
 22 32  1  0
 25 32  2  0
 31 32  1  0
M  END
$$$$
