7KM8_WPD_A_202
     RDKit          3D

 29 30  0  0  0  0  0  0  0  0999 V2000
  -27.0982   -5.2451  -16.2783 C   0  0  0  0  0  0  0  0  0  0  0  0
  -26.9844   -6.3674  -15.4579 O   0  0  0  0  0  0  0  0  0  0  0  0
  -28.8016   -6.2501  -19.4528 C   0  0  0  0  0  0  0  0  0  0  0  0
  -28.4211   -6.5244  -17.9785 C   0  0  0  0  0  0  0  0  0  0  0  0
  -27.7758   -5.2763  -17.4486 C   0  0  0  0  0  0  0  0  0  0  0  0
  -27.3349   -3.0447  -17.7851 C   0  0  0  0  0  0  0  0  0  0  0  0
  -26.5248   -4.0092  -15.8887 C   0  0  0  0  0  0  0  0  0  0  0  0
  -27.5158   -7.6208  -15.9915 C   0  0  0  0  0  0  0  0  0  0  0  0
  -28.2628   -8.2612  -14.8318 C   0  0  0  0  0  0  0  0  0  0  0  0
  -29.5992   -8.8498  -15.2900 C   0  0  0  0  0  0  0  0  0  0  0  0
  -30.3550  -10.8217  -16.4625 C   0  0  0  0  0  0  0  0  0  0  0  0
  -31.2142  -10.4335  -17.4694 C   0  0  0  0  0  0  0  0  0  0  0  0
  -32.2304  -11.2983  -17.8553 C   0  0  0  0  0  0  0  0  0  0  0  0
  -32.4070  -12.5224  -17.2395 C   0  0  0  0  0  0  0  0  0  0  0  0
  -31.5311  -12.9117  -16.2207 C   0  0  0  0  0  0  0  0  0  0  0  0
  -31.6948  -14.2484  -15.5080 C   0  0  0  0  0  0  0  0  0  0  0  0
  -30.4857  -15.2041  -15.5250 C   0  0  2  0  0  0  0  0  0  0  0  0
  -30.9870  -16.5588  -15.9592 C   0  0  2  0  0  0  0  0  0  0  0  0
  -29.9194  -15.2882  -14.0652 C   0  0  0  0  0  0  0  0  0  0  0  0
  -30.5183  -12.0505  -15.8478 C   0  0  0  0  0  0  0  0  0  0  0  0
  -29.9443  -17.3365  -16.4238 F   0  0  0  0  0  0  0  0  0  0  0  0
  -31.8804  -16.4532  -17.0189 F   0  0  0  0  0  0  0  0  0  0  0  0
  -27.9007   -4.1756  -18.2147 N   0  0  0  0  0  0  0  0  0  0  0  0
  -27.4590   -1.9366  -18.5571 N   0  0  0  0  0  0  0  0  0  0  0  0
  -26.6484   -2.9189  -16.6528 N   0  0  0  0  0  0  0  0  0  0  0  0
  -25.8476   -3.9039  -14.7464 N   0  0  0  0  0  0  0  0  0  0  0  0
  -29.3208  -10.0515  -15.9954 O   0  0  0  0  0  0  0  0  0  0  0  0
  -30.6528  -15.8941  -13.2656 O   0  0  0  0  0  0  0  0  0  0  0  0
  -28.8148  -14.7468  -13.8804 O   0  0  0  0  0  0  0  0  0  0  0  0
  1  2  1  0
  3  4  1  0
  1  5  2  0
  4  5  1  0
  1  7  1  0
  2  8  1  0
  8  9  1  0
  9 10  1  0
 11 12  2  0
 12 13  1  0
 13 14  2  0
 14 15  1  0
 15 16  1  0
 17 16  1  1
 17 18  1  0
 17 19  1  0
 15 20  2  0
 11 20  1  0
 18 21  1  6
 18 22  1  0
  6 23  2  0
  5 23  1  0
  6 24  1  0
  7 25  2  0
  6 25  1  0
  7 26  1  0
 11 27  1  0
 10 27  1  0
 19 28  2  0
 19 29  1  0
M  END
