7NUT_GLP_A_501
     RDKit          3D

 16 16  0  0  0  0  0  0  0  0999 V2000
   -3.2301  -13.2835  -33.4536 C   0  0  1  0  0  0  0  0  0  0  0  0
   -1.7814  -13.1853  -33.9057 C   0  0  1  0  0  0  0  0  0  0  0  0
   -1.1215  -11.9772  -33.3292 C   0  0  2  0  0  0  0  0  0  0  0  0
   -1.9303  -10.7444  -33.5810 C   0  0  1  0  0  0  0  0  0  0  0  0
   -3.3731  -10.9337  -33.0862 C   0  0  1  0  0  0  0  0  0  0  0  0
   -4.2027   -9.6942  -33.2740 C   0  0  0  0  0  0  0  0  0  0  0  0
   -3.2785  -13.3995  -32.1106 O   0  0  0  0  0  0  0  0  0  0  0  0
   -1.0821  -14.4022  -33.4649 N   0  0  0  0  0  0  0  0  0  0  0  0
    0.1942  -11.8136  -33.9390 O   0  0  0  0  0  0  0  0  0  0  0  0
   -1.3522   -9.6210  -32.9173 O   0  0  0  0  0  0  0  0  0  0  0  0
   -3.9827  -12.0377  -33.8214 O   0  0  0  0  0  0  0  0  0  0  0  0
   -4.3125   -9.4142  -34.6362 O   0  0  0  0  0  0  0  0  0  0  0  0
   -5.1461   -8.0338  -34.9676 P   0  0  2  0  0  0  0  0  0  0  0  0
   -4.7875   -6.9520  -33.9243 O   0  0  0  0  0  0  0  0  0  0  0  0
   -6.6553   -8.3152  -34.8783 O   0  0  0  0  0  0  0  0  0  0  0  0
   -4.7223   -7.6232  -36.4020 O   0  0  0  0  0  0  0  0  0  0  0  0
  1  2  1  0
  2  3  1  0
  3  4  1  0
  4  5  1  0
  5  6  1  6
  1  7  1  1
  2  8  1  1
  3  9  1  6
  4 10  1  1
  1 11  1  0
  5 11  1  0
  6 12  1  0
 12 13  1  0
 13 14  2  0
 13 15  1  6
 13 16  1  0
M  END
