1MZC_BNE_B_1003
     RDKit          3D

 35 38  0  0  0  0  0  0  0  0999 V2000
   26.6122  137.8584   10.9097 C   0  0  1  0  0  0  0  0  0  0  0  0
   27.8264  137.6146   10.0741 C   0  0  0  0  0  0  0  0  0  0  0  0
   26.8179  137.2464   12.2159 C   0  0  0  0  0  0  0  0  0  0  0  0
   26.3804  139.3214   10.9209 C   0  0  0  0  0  0  0  0  0  0  0  0
   25.5526  137.0543   10.1908 C   0  0  0  0  0  0  0  0  0  0  0  0
   27.9284  136.5637    9.1870 C   0  0  0  0  0  0  0  0  0  0  0  0
   28.9437  138.4399   10.1533 C   0  0  0  0  0  0  0  0  0  0  0  0
   26.5852  137.8561   13.4951 N   0  0  0  0  0  0  0  0  0  0  0  0
   27.2388  136.0703   12.3434 O   0  0  0  0  0  0  0  0  0  0  0  0
   25.3608  139.8743   11.8362 C   0  0  0  0  0  0  0  0  0  0  0  0
   25.8171  135.6114   10.0080 C   0  0  0  0  0  0  0  0  0  0  0  0
   29.0660  136.3341    8.4195 C   0  0  0  0  0  0  0  0  0  0  0  0
   30.0803  138.2156    9.3906 C   0  0  0  0  0  0  0  0  0  0  0  0
   25.6031  138.7966   13.9672 C   0  0  0  0  0  0  0  0  0  0  0  0
   27.5337  137.4464   14.5506 C   0  0  0  0  0  0  0  0  0  0  0  0
   25.8790  140.1080   13.2426 C   0  0  0  0  0  0  0  0  0  0  0  0
   29.1008  135.2462    7.5406 O   0  0  0  0  0  0  0  0  0  0  0  0
   30.1597  137.1580    8.5107 C   0  0  0  0  0  0  0  0  0  0  0  0
   27.9254  134.7028    7.0650 C   0  0  0  0  0  0  0  0  0  0  0  0
   28.0137  133.3988    6.5647 C   0  0  0  0  0  0  0  0  0  0  0  0
   26.7202  135.3806    7.0680 C   0  0  0  0  0  0  0  0  0  0  0  0
   26.9105  132.7444    6.0601 C   0  0  0  0  0  0  0  0  0  0  0  0
   29.2693  132.6848    6.5417 C   0  0  0  0  0  0  0  0  0  0  0  0
   25.5925  134.7239    6.5570 C   0  0  0  0  0  0  0  0  0  0  0  0
   25.7085  133.4413    6.0717 C   0  0  0  0  0  0  0  0  0  0  0  0
   30.2840  132.1287    6.5165 N   0  0  0  0  0  0  0  0  0  0  0  0
   24.2573  135.4210    6.5453 C   0  0  2  0  0  0  0  0  0  0  0  0
   23.2617  134.6981    7.3417 C   0  0  0  0  0  0  0  0  0  0  0  0
   23.8956  135.6871    5.1210 C   0  0  0  0  0  0  0  0  0  0  0  0
   24.4593  136.7276    7.1454 N   0  0  0  0  0  0  0  0  0  0  0  0
   23.0478  134.7227    8.6841 N   0  0  0  0  0  0  0  0  0  0  0  0
   22.3290  133.8315    6.8090 C   0  0  0  0  0  0  0  0  0  0  0  0
   22.0164  133.8917    8.9302 C   0  0  0  0  0  0  0  0  0  0  0  0
   23.7918  135.4950    9.6450 C   0  0  0  0  0  0  0  0  0  0  0  0
   21.5620  133.3362    7.7960 N   0  0  0  0  0  0  0  0  0  0  0  0
  1  2  1  0
  1  3  1  0
  1  4  1  0
  1  5  1  6
  2  6  2  0
  2  7  1  0
  3  8  1  0
  3  9  2  0
  4 10  1  0
  5 11  1  0
  6 12  1  0
  7 13  2  0
  8 14  1  0
  8 15  1  0
 10 16  1  0
 14 16  1  0
 12 17  1  0
 12 18  2  0
 13 18  1  0
 17 19  1  0
 19 20  2  0
 19 21  1  0
 20 22  1  0
 20 23  1  0
 21 24  2  0
 22 25  2  0
 24 25  1  0
 23 26  3  0
 24 27  1  0
 27 28  1  0
 27 29  1  6
 27 30  1  0
 28 31  1  0
 28 32  2  0
 31 33  1  0
 31 34  1  0
 32 35  1  0
 33 35  2  0
M  END
$$$$
