1MZC_BNE_B_1003
     RDKit          3D

 35 38  0  0  0  0  0  0  0  0999 V2000
   18.0129  137.1146   -0.6940 C   0  0  1  0  0  0  0  0  0  0  0  0
   16.7446  137.5405   -1.3587 C   0  0  0  0  0  0  0  0  0  0  0  0
   19.1341  137.5197   -1.5318 C   0  0  0  0  0  0  0  0  0  0  0  0
   17.9993  137.6866    0.6724 C   0  0  0  0  0  0  0  0  0  0  0  0
   17.9225  135.6064   -0.7507 C   0  0  0  0  0  0  0  0  0  0  0  0
   15.6943  138.1145   -0.6738 C   0  0  0  0  0  0  0  0  0  0  0  0
   16.5443  137.3691   -2.7249 C   0  0  0  0  0  0  0  0  0  0  0  0
   20.3219  138.2036   -1.1035 N   0  0  0  0  0  0  0  0  0  0  0  0
   19.1605  137.2940   -2.7667 O   0  0  0  0  0  0  0  0  0  0  0  0
   19.2236  137.5970    1.4946 C   0  0  0  0  0  0  0  0  0  0  0  0
   16.5787  135.0105   -0.5937 C   0  0  0  0  0  0  0  0  0  0  0  0
   14.5103  138.4988   -1.2955 C   0  0  0  0  0  0  0  0  0  0  0  0
   15.3661  137.7504   -3.3497 C   0  0  0  0  0  0  0  0  0  0  0  0
   21.1018  138.1479    0.1051 C   0  0  0  0  0  0  0  0  0  0  0  0
   20.8678  139.1590   -2.0889 C   0  0  0  0  0  0  0  0  0  0  0  0
   20.2189  138.7069    1.2137 C   0  0  0  0  0  0  0  0  0  0  0  0
   13.4847  139.0737   -0.5376 O   0  0  0  0  0  0  0  0  0  0  0  0
   14.3293  138.3217   -2.6443 C   0  0  0  0  0  0  0  0  0  0  0  0
   13.7222  140.2209    0.1910 C   0  0  0  0  0  0  0  0  0  0  0  0
   12.7343  140.5710    1.1184 C   0  0  0  0  0  0  0  0  0  0  0  0
   14.8554  140.9976    0.0356 C   0  0  0  0  0  0  0  0  0  0  0  0
   12.8526  141.6951    1.9074 C   0  0  0  0  0  0  0  0  0  0  0  0
   11.5384  139.7769    1.2803 C   0  0  0  0  0  0  0  0  0  0  0  0
   14.9853  142.1426    0.8332 C   0  0  0  0  0  0  0  0  0  0  0  0
   13.9982  142.4627    1.7372 C   0  0  0  0  0  0  0  0  0  0  0  0
   10.5870  139.1283    1.3968 N   0  0  0  0  0  0  0  0  0  0  0  0
   16.2056  143.0158    0.7024 C   0  0  2  0  0  0  0  0  0  0  0  0
   17.0222  142.9912    1.9192 C   0  0  0  0  0  0  0  0  0  0  0  0
   15.7544  144.3615    0.2380 C   0  0  0  0  0  0  0  0  0  0  0  0
   16.9963  142.4736   -0.3879 N   0  0  0  0  0  0  0  0  0  0  0  0
   16.8415  143.6532    3.0930 N   0  0  0  0  0  0  0  0  0  0  0  0
   18.1695  142.2377    2.0634 C   0  0  0  0  0  0  0  0  0  0  0  0
   17.8570  143.2959    3.9028 C   0  0  0  0  0  0  0  0  0  0  0  0
   15.7646  144.5599    3.3953 C   0  0  0  0  0  0  0  0  0  0  0  0
   18.6810  142.4303    3.2919 N   0  0  0  0  0  0  0  0  0  0  0  0
  1  2  1  0
  1  3  1  0
  1  4  1  0
  1  5  1  1
  2  6  2  0
  2  7  1  0
  3  8  1  0
  3  9  2  0
  4 10  1  0
  5 11  1  0
  6 12  1  0
  7 13  2  0
  8 14  1  0
  8 15  1  0
 10 16  1  0
 14 16  1  0
 12 17  1  0
 12 18  2  0
 13 18  1  0
 17 19  1  0
 19 20  2  0
 19 21  1  0
 20 22  1  0
 20 23  1  0
 21 24  2  0
 22 25  2  0
 24 25  1  0
 23 26  3  0
 24 27  1  0
 27 28  1  0
 27 29  1  6
 27 30  1  0
 28 31  1  0
 28 32  2  0
 31 33  1  0
 31 34  1  0
 32 35  1  0
 33 35  2  0
M  END
$$$$
