7ZYS_KNR_B_201
     RDKit          3D

 44 45  0  0  0  0  0  0  0  0999 V2000
    5.2474   -8.0061   -2.6109 N   0  0  0  0  0  0  0  0  0  0  0  0
    7.2601  -12.6994    4.0588 C   0  0  0  0  0  0  0  0  0  0  0  0
    6.3864  -12.8657    5.2625 C   0  0  2  0  0  0  0  0  0  0  0  0
    7.0232   -6.5051   -2.1584 N   0  0  0  0  0  0  0  0  0  0  0  0
    7.0291  -12.2652    6.4912 C   0  0  0  0  0  0  0  0  0  0  0  0
   -1.0682   -7.4544    0.3345 O   0  0  0  0  0  0  0  0  0  0  0  0
    4.1829   -7.5937    0.0350 C   0  0  1  0  0  0  0  0  0  0  0  0
    5.6405  -10.3320    2.1292 C   0  0  0  0  0  0  0  0  0  0  0  0
    6.5226  -10.3870    3.3322 C   0  0  0  0  0  0  0  0  0  0  0  0
    7.4139  -11.5302    3.3250 N   0  0  0  0  0  0  0  0  0  0  0  0
    5.6675   -8.8936    1.5971 C   0  0  0  0  0  0  0  0  0  0  0  0
    7.9090  -13.7334    3.6943 O   0  0  0  0  0  0  0  0  0  0  0  0
    4.9095   -8.8706    0.3080 C   0  0  0  0  0  0  0  0  0  0  0  0
    4.6880  -15.8336    6.3178 O   0  0  0  0  0  0  0  0  0  0  0  0
    5.7480   -7.1061   -1.8520 C   0  0  0  0  0  0  0  0  0  0  0  0
    6.1493  -14.2621    5.5436 N   0  0  0  0  0  0  0  0  0  0  0  0
    5.0478   -6.7050   -0.7091 N   0  0  0  0  0  0  0  0  0  0  0  0
    2.9720   -7.9553   -0.7873 C   0  0  0  0  0  0  0  0  0  0  0  0
    3.1747   -8.5633   -1.8827 O   0  0  0  0  0  0  0  0  0  0  0  0
    7.6994  -13.2999    7.3265 C   0  0  0  0  0  0  0  0  0  0  0  0
    7.6668  -14.6763    6.6455 C   0  0  0  0  0  0  0  0  0  0  0  0
    9.1351  -15.0479    6.4270 C   0  0  0  0  0  0  0  0  0  0  0  0
    4.8815  -14.8995    5.4589 C   0  0  0  0  0  0  0  0  0  0  0  0
    3.8375  -14.5387    4.4642 C   0  0  2  0  0  0  0  0  0  0  0  0
    2.5509  -14.1092    5.0702 C   0  0  0  0  0  0  0  0  0  0  0  0
    1.3487  -14.7875    4.5312 C   0  0  0  0  0  0  0  0  0  0  0  0
    1.2082  -16.2619    4.6851 C   0  0  0  0  0  0  0  0  0  0  0  0
   -0.0674  -16.8224    4.0914 C   0  0  0  0  0  0  0  0  0  0  0  0
    3.3256  -15.0367    2.0995 C   0  0  0  0  0  0  0  0  0  0  0  0
    3.8620  -13.7294    1.5681 C   0  0  0  0  0  0  0  0  0  0  0  0
    2.7332  -12.8376    1.3184 C   0  0  0  0  0  0  0  0  0  0  0  0
    2.0858  -11.9318    2.1823 C   0  0  0  0  0  0  0  0  0  0  0  0
    1.0179  -11.1621    1.7329 C   0  0  0  0  0  0  0  0  0  0  0  0
    0.1907  -10.1617    2.4329 C   0  0  0  0  0  0  0  0  0  0  0  0
   -0.2658   -8.2387    0.9152 C   0  0  0  0  0  0  0  0  0  0  0  0
    1.1573   -7.8143    0.9583 C   0  0  0  0  0  0  0  0  0  0  0  0
    0.6079  -11.3271    0.3741 C   0  0  0  0  0  0  0  0  0  0  0  0
    1.2119  -12.1924   -0.4818 C   0  0  0  0  0  0  0  0  0  0  0  0
    2.2535  -12.9355   -0.0259 C   0  0  0  0  0  0  0  0  0  0  0  0
   -0.1352  -18.2716    4.2906 N   0  0  0  0  0  0  0  0  0  0  0  0
    3.6684  -15.4986    3.4192 N   0  0  0  0  0  0  0  0  0  0  0  0
   -0.7260   -9.4632    1.4921 N   0  0  0  0  0  0  0  0  0  0  0  0
    1.6604   -7.6545   -0.4000 N   0  0  0  0  0  0  0  0  0  0  0  0
    2.5740  -15.6838    1.3265 O   0  0  0  0  0  0  0  0  0  0  0  0
  2  3  1  0
  5  3  1  1
  8  9  1  6
  2 10  1  0
  9 10  1  1
 11  8  1  6
  2 12  2  0
 13  7  1  1
 11 13  1  0
  1 15  2  0
  4 15  1  0
  3 16  1  1
  7 17  1  6
 15 17  1  0
  7 18  1  0
 18 19  2  0
 20  5  1  6
 20 21  1  0
 21 22  1  1
 16 23  1  0
 14 23  2  0
 23 24  1  0
 25 24  1  6
 26 25  1  1
 26 27  1  0
 27 28  1  6
 30 29  1  6
 30 31  1  0
 31 32  2  0
 32 33  1  0
 33 34  1  0
  6 35  2  0
 35 36  1  0
 33 37  2  0
 37 38  1  0
 31 39  1  0
 38 39  2  0
 28 40  1  6
 29 41  1  0
 24 41  1  6
 34 42  1  1
 35 42  1  0
 36 43  1  6
 18 43  1  0
 29 44  2  0
M  END
$$$$
