7FRX_O88_E_605
     RDKit          3D

 30 32  0  0  0  0  0  0  0  0999 V2000
   88.2640  -40.8110   67.2830 C   0  0  0  0  0  0  0  0  0  0  0  0
   79.2980  -44.4940   67.8230 O   0  0  0  0  0  0  0  0  0  0  0  0
   89.2470  -41.3980   68.0220 C   0  0  0  0  0  0  0  0  0  0  0  0
   83.3570  -44.2570   65.0820 C   0  0  0  0  0  0  0  0  0  0  0  0
   82.1970  -44.9170   65.4520 C   0  0  0  0  0  0  0  0  0  0  0  0
   78.0660  -43.8020   65.3720 C   0  0  0  0  0  0  0  0  0  0  0  0
   77.2130  -43.5660   64.3120 C   0  0  0  0  0  0  0  0  0  0  0  0
   76.2430  -42.5980   64.3430 O   0  0  0  0  0  0  0  0  0  0  0  0
   79.0470  -45.6430   64.1560 C   0  0  0  0  0  0  0  0  0  0  0  0
   77.2640  -44.3630   63.1260 C   0  0  0  0  0  0  0  0  0  0  0  0
   78.2160  -45.4200   63.0410 C   0  0  0  0  0  0  0  0  0  0  0  0
   81.3170  -44.3480   66.3380 C   0  0  0  0  0  0  0  0  0  0  0  0
   78.9880  -44.8560   65.3370 C   0  0  0  0  0  0  0  0  0  0  0  0
   81.6260  -43.0890   66.8510 C   0  0  0  0  0  0  0  0  0  0  0  0
   82.7770  -42.4180   66.4890 C   0  0  0  0  0  0  0  0  0  0  0  0
   76.4300  -44.1900   62.0760 O   0  0  0  0  0  0  0  0  0  0  0  0
   83.6500  -43.0210   65.5850 C   0  0  0  0  0  0  0  0  0  0  0  0
   88.8350  -42.2960   65.4560 C   0  0  0  0  0  0  0  0  0  0  0  0
   87.0040  -40.8560   63.7190 O   0  0  0  0  0  0  0  0  0  0  0  0
   89.8170  -42.9310   66.2170 C   0  0  0  0  0  0  0  0  0  0  0  0
   88.0320  -41.2270   65.9790 C   0  0  0  0  0  0  0  0  0  0  0  0
   84.9140  -42.4230   65.0090 C   0  0  0  0  0  0  0  0  0  0  0  0
   86.6560  -39.1480   65.4640 O   0  0  0  0  0  0  0  0  0  0  0  0
   86.8300  -40.4980   65.0770 S   0  0  0  0  0  0  0  0  0  0  0  0
   89.5840  -40.8600   69.2120 O   0  0  0  0  0  0  0  0  0  0  0  0
   90.0340  -42.4740   67.5280 C   0  0  0  0  0  0  0  0  0  0  0  0
   91.0120  -43.0910   68.2270 O   0  0  0  0  0  0  0  0  0  0  0  0
   85.4620  -41.2270   65.6350 N   0  0  0  0  0  0  0  0  0  0  0  0
   79.9260  -45.1450   66.7140 S   0  0  0  0  0  0  0  0  0  0  0  0
   80.2080  -46.5150   66.8190 O   0  0  0  0  0  0  0  0  0  0  0  0
  1  3  2  0
  4  5  2  0
  6  7  2  0
  7  8  1  0
  7 10  1  0
  9 11  1  0
 10 11  2  0
  5 12  1  0
  9 13  2  0
  6 13  1  0
 12 14  2  0
 14 15  1  0
 10 16  1  0
 15 17  2  0
  4 17  1  0
 18 20  1  0
 18 21  2  0
  1 21  1  0
 17 22  1  0
 21 24  1  0
 19 24  2  0
 23 24  2  0
  3 25  1  0
 20 26  2  0
  3 26  1  0
 26 27  1  0
 24 28  1  0
 22 28  1  0
 12 29  1  0
 13 29  1  0
  2 29  2  0
 29 30  2  0
M  END
$$$$
7FRX_O88_F_605
     RDKit          3D

 30 32  0  0  0  0  0  0  0  0999 V2000
   79.2570  -22.9420   77.9710 C   0  0  0  0  0  0  0  0  0  0  0  0
   72.0730  -28.9090   80.1490 O   0  0  0  0  0  0  0  0  0  0  0  0
   78.9870  -21.9410   77.0750 C   0  0  0  0  0  0  0  0  0  0  0  0
   75.6600  -26.6390   80.4900 C   0  0  0  0  0  0  0  0  0  0  0  0
   74.4810  -27.3930   80.4900 C   0  0  0  0  0  0  0  0  0  0  0  0
   72.6860  -30.0650   82.6730 C   0  0  0  0  0  0  0  0  0  0  0  0
   72.8510  -30.7650   83.8570 C   0  0  0  0  0  0  0  0  0  0  0  0
   73.3190  -32.0710   83.9310 O   0  0  0  0  0  0  0  0  0  0  0  0
   71.8500  -28.1600   83.9100 C   0  0  0  0  0  0  0  0  0  0  0  0
   72.5030  -30.1590   85.1000 C   0  0  0  0  0  0  0  0  0  0  0  0
   72.0070  -28.8370   85.1270 C   0  0  0  0  0  0  0  0  0  0  0  0
   73.3670  -27.0110   81.1900 C   0  0  0  0  0  0  0  0  0  0  0  0
   72.1750  -28.7510   82.6710 C   0  0  0  0  0  0  0  0  0  0  0  0
   73.4370  -25.8270   81.9180 C   0  0  0  0  0  0  0  0  0  0  0  0
   74.6040  -25.0480   81.9110 C   0  0  0  0  0  0  0  0  0  0  0  0
   72.5890  -30.8080   86.2650 O   0  0  0  0  0  0  0  0  0  0  0  0
   75.7230  -25.4400   81.2040 C   0  0  0  0  0  0  0  0  0  0  0  0
   78.7140  -21.4450   79.7800 C   0  0  0  0  0  0  0  0  0  0  0  0
   79.6920  -23.4890   81.7010 O   0  0  0  0  0  0  0  0  0  0  0  0
   78.3880  -20.4220   78.8960 C   0  0  0  0  0  0  0  0  0  0  0  0
   79.1450  -22.7230   79.3400 C   0  0  0  0  0  0  0  0  0  0  0  0
   76.9370  -24.5240   81.3160 C   0  0  0  0  0  0  0  0  0  0  0  0
   80.3820  -24.8430   79.7780 O   0  0  0  0  0  0  0  0  0  0  0  0
   79.4880  -23.9780   80.4100 S   0  0  0  0  0  0  0  0  0  0  0  0
   79.2200  -22.1230   75.7310 O   0  0  0  0  0  0  0  0  0  0  0  0
   78.5400  -20.6650   77.5090 C   0  0  0  0  0  0  0  0  0  0  0  0
   78.2930  -19.6370   76.6860 O   0  0  0  0  0  0  0  0  0  0  0  0
   78.0530  -24.7900   80.3940 N   0  0  0  0  0  0  0  0  0  0  0  0
   72.0010  -27.9330   81.2050 S   0  0  0  0  0  0  0  0  0  0  0  0
   70.8740  -27.0580   81.2750 O   0  0  0  0  0  0  0  0  0  0  0  0
  1  3  2  0
  4  5  2  0
  6  7  2  0
  7  8  1  0
  7 10  1  0
  9 11  1  0
 10 11  2  0
  5 12  1  0
  9 13  2  0
  6 13  1  0
 12 14  2  0
 14 15  1  0
 10 16  1  0
 15 17  2  0
  4 17  1  0
 18 20  1  0
 18 21  2  0
  1 21  1  0
 17 22  1  0
 21 24  1  0
 19 24  2  0
 23 24  2  0
  3 25  1  0
 20 26  2  0
  3 26  1  0
 26 27  1  0
 24 28  1  0
 22 28  1  0
 12 29  1  0
 13 29  1  0
  2 29  2  0
 29 30  2  0
M  END
$$$$
7FRX_O88_A_605
     RDKit          3D

 30 32  0  0  0  0  0  0  0  0999 V2000
   23.8830  -42.3400   29.1180 C   0  0  0  0  0  0  0  0  0  0  0  0
   15.5910  -37.2710   29.1090 O   0  0  0  0  0  0  0  0  0  0  0  0
   24.7030  -42.1270   30.2080 C   0  0  0  0  0  0  0  0  0  0  0  0
   18.5870  -39.8340   27.8140 C   0  0  0  0  0  0  0  0  0  0  0  0
   17.4560  -39.1490   28.1690 C   0  0  0  0  0  0  0  0  0  0  0  0
   13.9270  -38.7340   27.3640 C   0  0  0  0  0  0  0  0  0  0  0  0
   12.9240  -39.1980   26.5620 C   0  0  0  0  0  0  0  0  0  0  0  0
   12.6820  -38.6800   25.3600 O   0  0  0  0  0  0  0  0  0  0  0  0
   13.1890  -40.2070   29.0950 C   0  0  0  0  0  0  0  0  0  0  0  0
   12.0350  -40.2130   26.9930 C   0  0  0  0  0  0  0  0  0  0  0  0
   12.1740  -40.7240   28.2990 C   0  0  0  0  0  0  0  0  0  0  0  0
   16.6200  -39.5550   29.1560 C   0  0  0  0  0  0  0  0  0  0  0  0
   14.0810  -39.2190   28.6480 C   0  0  0  0  0  0  0  0  0  0  0  0
   16.9440  -40.7540   29.7810 C   0  0  0  0  0  0  0  0  0  0  0  0
   18.1130  -41.4860   29.4250 C   0  0  0  0  0  0  0  0  0  0  0  0
   11.0600  -40.7440   26.2240 O   0  0  0  0  0  0  0  0  0  0  0  0
   18.9390  -40.9880   28.4250 C   0  0  0  0  0  0  0  0  0  0  0  0
   22.8960  -44.1670   30.3420 C   0  0  0  0  0  0  0  0  0  0  0  0
   21.5550  -44.9670   27.7780 O   0  0  0  0  0  0  0  0  0  0  0  0
   23.7080  -43.9640   31.4490 C   0  0  0  0  0  0  0  0  0  0  0  0
   22.9640  -43.3590   29.1470 C   0  0  0  0  0  0  0  0  0  0  0  0
   20.2630  -41.5410   27.9280 C   0  0  0  0  0  0  0  0  0  0  0  0
   22.5250  -42.9280   26.7240 O   0  0  0  0  0  0  0  0  0  0  0  0
   21.9560  -43.6140   27.8260 S   0  0  0  0  0  0  0  0  0  0  0  0
   25.6670  -41.1760   30.1560 O   0  0  0  0  0  0  0  0  0  0  0  0
   24.6420  -42.9170   31.3790 C   0  0  0  0  0  0  0  0  0  0  0  0
   25.4780  -42.7320   32.4230 O   0  0  0  0  0  0  0  0  0  0  0  0
   20.5620  -42.9290   28.2520 N   0  0  0  0  0  0  0  0  0  0  0  0
   15.3120  -38.5820   29.5770 S   0  0  0  0  0  0  0  0  0  0  0  0
   15.0190  -38.7630   30.9340 O   0  0  0  0  0  0  0  0  0  0  0  0
  1  3  2  0
  4  5  2  0
  6  7  2  0
  7  8  1  0
  7 10  1  0
  9 11  1  0
 10 11  2  0
  5 12  1  0
  9 13  2  0
  6 13  1  0
 12 14  2  0
 14 15  1  0
 10 16  1  0
 15 17  2  0
  4 17  1  0
 18 20  1  0
 18 21  2  0
  1 21  1  0
 17 22  1  0
 21 24  1  0
 19 24  2  0
 23 24  2  0
  3 25  1  0
 20 26  2  0
  3 26  1  0
 26 27  1  0
 24 28  1  0
 22 28  1  0
 12 29  1  0
 13 29  1  0
  2 29  2  0
 29 30  2  0
M  END
$$$$
7FRX_O88_B_605
     RDKit          3D

 30 32  0  0  0  0  0  0  0  0999 V2000
   29.9110  -28.1980   11.9340 C   0  0  0  0  0  0  0  0  0  0  0  0
   22.3920  -22.6710   14.6790 O   0  0  0  0  0  0  0  0  0  0  0  0
   29.8090  -28.8710   10.7480 C   0  0  0  0  0  0  0  0  0  0  0  0
   26.4090  -24.2520   14.3530 C   0  0  0  0  0  0  0  0  0  0  0  0
   25.1430  -23.6730   14.4980 C   0  0  0  0  0  0  0  0  0  0  0  0
   23.5340  -20.7330   16.5620 C   0  0  0  0  0  0  0  0  0  0  0  0
   23.8080  -19.7250   17.4850 C   0  0  0  0  0  0  0  0  0  0  0  0
   23.5340  -19.8290   18.8270 O   0  0  0  0  0  0  0  0  0  0  0  0
   24.2220  -19.2830   14.7700 C   0  0  0  0  0  0  0  0  0  0  0  0
   24.3140  -18.4660   17.0520 C   0  0  0  0  0  0  0  0  0  0  0  0
   24.5310  -18.2560   15.6680 C   0  0  0  0  0  0  0  0  0  0  0  0
   24.7930  -22.5180   13.8650 C   0  0  0  0  0  0  0  0  0  0  0  0
   23.7220  -20.5330   15.1800 C   0  0  0  0  0  0  0  0  0  0  0  0
   25.7470  -21.9270   13.0360 C   0  0  0  0  0  0  0  0  0  0  0  0
   27.0160  -22.5010   12.8590 C   0  0  0  0  0  0  0  0  0  0  0  0
   24.5530  -17.4230   17.8790 O   0  0  0  0  0  0  0  0  0  0  0  0
   27.3560  -23.6440   13.5090 C   0  0  0  0  0  0  0  0  0  0  0  0
   30.8880  -26.3380   10.7500 C   0  0  0  0  0  0  0  0  0  0  0  0
   31.5500  -25.1340   13.3870 O   0  0  0  0  0  0  0  0  0  0  0  0
   30.7760  -27.0030    9.5240 C   0  0  0  0  0  0  0  0  0  0  0  0
   30.4600  -26.9180   11.9790 C   0  0  0  0  0  0  0  0  0  0  0  0
   28.7640  -24.1150   13.2500 C   0  0  0  0  0  0  0  0  0  0  0  0
   30.5960  -27.1380   14.4540 O   0  0  0  0  0  0  0  0  0  0  0  0
   30.5830  -26.1260   13.4460 S   0  0  0  0  0  0  0  0  0  0  0  0
   29.3310  -30.1270   10.7400 O   0  0  0  0  0  0  0  0  0  0  0  0
   30.2200  -28.3040    9.5260 C   0  0  0  0  0  0  0  0  0  0  0  0
   30.0930  -28.9130    8.3390 O   0  0  0  0  0  0  0  0  0  0  0  0
   29.0940  -25.4690   13.6400 N   0  0  0  0  0  0  0  0  0  0  0  0
   23.3280  -21.7770   14.0900 S   0  0  0  0  0  0  0  0  0  0  0  0
   22.9830  -21.1910   12.8380 O   0  0  0  0  0  0  0  0  0  0  0  0
  1  3  2  0
  4  5  2  0
  6  7  2  0
  7  8  1  0
  7 10  1  0
  9 11  1  0
 10 11  2  0
  5 12  1  0
  9 13  2  0
  6 13  1  0
 12 14  2  0
 14 15  1  0
 10 16  1  0
 15 17  2  0
  4 17  1  0
 18 20  1  0
 18 21  2  0
  1 21  1  0
 17 22  1  0
 21 24  1  0
 19 24  2  0
 23 24  2  0
  3 25  1  0
 20 26  2  0
  3 26  1  0
 26 27  1  0
 24 28  1  0
 22 28  1  0
 12 29  1  0
 13 29  1  0
  2 29  2  0
 29 30  2  0
M  END
$$$$
