7FRX_O88_F_605
     RDKit          3D

 47 49  0  0  0  0  0  0  0  0999 V2000
    1.4693   -2.7754    4.6737 C   0  0  0  0  0  0  0  0  0  0  0  0
   -0.7401    0.5176   -4.8694 O   0  0  0  0  0  0  0  0  0  0  0  0
    2.4076   -3.8007    4.5053 C   0  0  0  0  0  0  0  0  0  0  0  0
   -2.1598    0.5115   -0.0150 C   0  0  0  0  0  0  0  0  0  0  0  0
   -2.3046    0.9926   -1.3197 C   0  0  0  0  0  0  0  0  0  0  0  0
   -1.5807    4.1310   -3.5765 C   0  0  0  0  0  0  0  0  0  0  0  0
   -1.0495    5.4258   -3.5989 C   0  0  0  0  0  0  0  0  0  0  0  0
   -1.8577    6.4965   -3.2177 O   0  0  0  0  0  0  0  0  0  0  0  0
    0.5348    3.2379   -4.3486 C   0  0  0  0  0  0  0  0  0  0  0  0
    0.2828    5.6274   -4.0009 C   0  0  0  0  0  0  0  0  0  0  0  0
    1.0702    4.5285   -4.3735 C   0  0  0  0  0  0  0  0  0  0  0  0
   -1.2945    0.7779   -2.2663 C   0  0  0  0  0  0  0  0  0  0  0  0
   -0.7948    3.0349   -3.9570 C   0  0  0  0  0  0  0  0  0  0  0  0
   -0.1293    0.0953   -1.8932 C   0  0  0  0  0  0  0  0  0  0  0  0
    0.0168   -0.3863   -0.5890 C   0  0  0  0  0  0  0  0  0  0  0  0
    0.8184    6.9141   -4.0265 O   0  0  0  0  0  0  0  0  0  0  0  0
   -1.0044   -0.1946    0.3547 C   0  0  0  0  0  0  0  0  0  0  0  0
    2.5471   -1.4893    2.9262 C   0  0  0  0  0  0  0  0  0  0  0  0
    0.9555    0.7582    4.9306 O   0  0  0  0  0  0  0  0  0  0  0  0
    3.4861   -2.5095    2.7541 C   0  0  0  0  0  0  0  0  0  0  0  0
    1.5333   -1.6189    3.8837 C   0  0  0  0  0  0  0  0  0  0  0  0
   -0.8267   -0.6776    1.7664 C   0  0  0  0  0  0  0  0  0  0  0  0
   -0.8805   -0.8551    4.7711 O   0  0  0  0  0  0  0  0  0  0  0  0
    0.3515   -0.3286    4.0865 S   0  0  0  0  0  6  0  0  0  0  0  0
    2.3156   -4.9410    5.3032 O   0  0  0  0  0  0  0  0  0  0  0  0
    3.4222   -3.6682    3.5403 C   0  0  0  0  0  0  0  0  0  0  0  0
    4.3606   -4.6844    3.3673 O   0  0  0  0  0  0  0  0  0  0  0  0
   -0.0826    0.3228    2.5346 N   0  0  0  0  0  0  0  0  0  0  0  0
   -1.4647    1.4093   -3.8992 S   0  0  0  0  0  6  0  0  0  0  0  0
   -2.9162    1.4418   -4.2899 O   0  0  0  0  0  0  0  0  0  0  0  0
    0.6934   -2.8836    5.4208 H   0  0  0  0  0  0  0  0  0  0  0  0
   -2.9458    0.6932    0.7073 H   0  0  0  0  0  0  0  0  0  0  0  0
   -3.1998    1.5390   -1.5882 H   0  0  0  0  0  0  0  0  0  0  0  0
   -2.6049    3.9806   -3.2583 H   0  0  0  0  0  0  0  0  0  0  0  0
   -1.5199    7.4516   -3.2171 H   0  0  0  0  0  0  0  0  0  0  0  0
    1.1586    2.3991   -4.6302 H   0  0  0  0  0  0  0  0  0  0  0  0
    2.0984    4.6736   -4.6799 H   0  0  0  0  0  0  0  0  0  0  0  0
    0.6691   -0.0569   -2.6081 H   0  0  0  0  0  0  0  0  0  0  0  0
    0.9270   -0.9047   -0.3128 H   0  0  0  0  0  0  0  0  0  0  0  0
    1.7757    7.0845   -4.3119 H   0  0  0  0  0  0  0  0  0  0  0  0
    2.6103   -0.5988    2.3129 H   0  0  0  0  0  0  0  0  0  0  0  0
    4.2638   -2.3982    2.0092 H   0  0  0  0  0  0  0  0  0  0  0  0
   -0.2748   -1.6432    1.7472 H   0  0  0  0  0  0  0  0  0  0  0  0
   -1.8186   -0.8674    2.2360 H   0  0  0  0  0  0  0  0  0  0  0  0
    2.9698   -5.7096    5.2192 H   0  0  0  0  0  0  0  0  0  0  0  0
    5.1003   -4.6126    2.6787 H   0  0  0  0  0  0  0  0  0  0  0  0
   -0.7176    1.1355    2.7120 H   0  0  0  0  0  0  0  0  0  0  0  0
  1  3  2  0
  4  5  2  0
  6  7  2  0
  7  8  1  0
  7 10  1  0
  9 11  1  0
 10 11  2  0
  5 12  1  0
  9 13  2  0
  6 13  1  0
 12 14  2  0
 14 15  1  0
 10 16  1  0
 15 17  2  0
  4 17  1  0
 18 20  1  0
 18 21  2  0
  1 21  1  0
 17 22  1  0
 21 24  1  0
 19 24  2  0
 23 24  2  0
  3 25  1  0
 20 26  2  0
  3 26  1  0
 26 27  1  0
 24 28  1  0
 22 28  1  0
 12 29  1  0
 13 29  1  0
  2 29  2  0
 29 30  2  0
  1 31  1  0
  4 32  1  0
  5 33  1  0
  6 34  1  0
  8 35  1  0
  9 36  1  0
 11 37  1  0
 14 38  1  0
 15 39  1  0
 16 40  1  0
 18 41  1  0
 20 42  1  0
 22 43  1  0
 22 44  1  0
 25 45  1  0
 27 46  1  0
 28 47  1  0
M  END
