8B8H_OJQ_A_401
     RDKit          3D

 37 38  0  0  0  0  0  0  0  0999 V2000
   41.5061   11.7605    8.4416 C   0  0  0  0  0  0  0  0  0  0  0  0
   41.9297   12.2991    9.6767 C   0  0  0  0  0  0  0  0  0  0  0  0
   42.7618   11.5186   10.5216 C   0  0  0  0  0  0  0  0  0  0  0  0
   43.1205   10.2277   10.1075 C   0  0  0  0  0  0  0  0  0  0  0  0
   41.9070   10.4592    8.0779 C   0  0  0  0  0  0  0  0  0  0  0  0
   42.6016   14.6647    9.7798 N   0  0  1  0  0  4  0  0  0  0  0  0
   42.3963   15.8707   10.5341 C   0  0  0  0  0  0  0  0  0  0  0  0
   41.2565   16.2841   11.1891 C   0  0  0  0  0  0  0  0  0  0  0  0
   40.0690   15.5742   11.3357 O   0  0  0  0  0  0  0  0  0  0  0  0
   43.2646   16.9347   10.6443 C   0  0  0  0  0  0  0  0  0  0  0  0
   42.6591   17.8751   11.3385 O   0  0  0  0  0  0  0  0  0  0  0  0
   41.4517   17.5198   11.6828 N   0  0  0  0  0  0  0  0  0  0  0  0
   41.4873    9.8378    6.7800 C   0  0  2  0  0  0  0  0  0  0  0  0
   41.5091   13.7141   10.0371 C   0  0  1  0  0  0  0  0  0  0  0  0
   43.2624   12.0069   11.8653 C   0  0  1  0  0  0  0  0  0  0  0  0
   42.6947    9.7400    8.9172 N   0  0  0  0  0  0  0  0  0  0  0  0
   40.6943   12.5290    7.6002 O   0  0  0  0  0  0  0  0  0  0  0  0
   45.4560   11.1070   10.3540 O   0  0  0  0  0  0  0  0  0  0  0  0
   45.8533   13.7479    9.6844 O   0  0  0  0  0  0  0  0  0  0  0  0
   46.7161   12.7672   11.9408 O   0  0  0  0  0  0  0  0  0  0  0  0
   44.1039   13.1313   11.7322 O   0  0  0  0  0  0  0  0  0  0  0  0
   45.5633   12.6818   10.9654 P   0  0  2  0  0  5  0  0  0  0  0  0
   43.7492    9.6042   10.7302 H   0  0  0  0  0  0  0  0  0  0  0  0
   42.6326   14.9117    8.7634 H   0  0  0  0  0  0  0  0  0  0  0  0
   43.5205   14.2412   10.0414 H   0  0  0  0  0  0  0  0  0  0  0  0
   39.9789   14.6214   11.0094 H   0  0  0  0  0  0  0  0  0  0  0  0
   44.2637   17.0068   10.2355 H   0  0  0  0  0  0  0  0  0  0  0  0
   41.9777   10.3626    5.9333 H   0  0  0  0  0  0  0  0  0  0  0  0
   40.3840    9.8977    6.6710 H   0  0  0  0  0  0  0  0  0  0  0  0
   41.7836    8.7678    6.7456 H   0  0  0  0  0  0  0  0  0  0  0  0
   40.6142   13.9870    9.4324 H   0  0  0  0  0  0  0  0  0  0  0  0
   41.1837   13.7861   11.0961 H   0  0  0  0  0  0  0  0  0  0  0  0
   42.3814   12.3050   12.4705 H   0  0  0  0  0  0  0  0  0  0  0  0
   43.7393   11.1931   12.4582 H   0  0  0  0  0  0  0  0  0  0  0  0
   40.5732   12.3324    6.6151 H   0  0  0  0  0  0  0  0  0  0  0  0
   44.6088   10.7505   10.7226 H   0  0  0  0  0  0  0  0  0  0  0  0
   45.7818   14.6500   10.0868 H   0  0  0  0  0  0  0  0  0  0  0  0
  1  2  2  0
  2  3  1  0
  3  4  2  0
  1  5  1  0
  6  7  1  0
  7  8  1  0
  8  9  1  0
  7 10  2  0
 10 11  1  0
  8 12  2  0
 11 12  1  0
  5 13  1  0
  6 14  1  0
  2 14  1  0
  3 15  1  0
  5 16  2  0
  4 16  1  0
  1 17  1  0
 15 21  1  0
 20 22  2  0
 22 21  1  1
 18 22  1  0
 19 22  1  0
  4 23  1  0
  6 24  1  6
  6 25  1  0
  9 26  1  0
 10 27  1  0
 13 28  1  6
 13 29  1  0
 13 30  1  0
 14 31  1  6
 14 32  1  0
 15 33  1  1
 15 34  1  0
 17 35  1  0
 18 36  1  0
 19 37  1  0
M  CHG  1   6   1
M  END
