7ZU2_DHT_A_1001
     RDKit          3D

 51 54  0  0  0  0  0  0  0  0999 V2000
  -26.1491    5.3683   -6.5824 C   0  0  1  0  0  0  0  0  0  0  0  0
  -25.3022    6.6200   -6.2527 C   0  0  2  0  0  0  0  0  0  0  0  0
  -23.8519    6.4783   -6.6192 C   0  0  0  0  0  0  0  0  0  0  0  0
  -23.2578    7.4210   -7.1192 O   0  0  0  0  0  0  0  0  0  0  0  0
  -23.1051    5.2114   -6.3135 C   0  0  1  0  0  0  0  0  0  0  0  0
  -24.0609    4.0878   -5.8618 C   0  0  2  0  0  0  0  0  0  0  0  0
  -23.3049    2.7460   -5.7935 C   0  0  1  0  0  0  0  0  0  0  0  0
  -24.2082    1.6256   -5.2783 C   0  0  2  0  0  0  0  0  0  0  0  0
  -25.4593    1.4713   -6.1616 C   0  0  2  0  0  0  0  0  0  0  0  0
  -26.2483    2.8231   -6.2196 C   0  0  1  0  0  0  0  0  0  0  0  0
  -25.3597    4.0185   -6.7427 C   0  0  1  0  0  0  0  0  0  0  0  0
  -27.6216    2.6761   -6.9547 C   0  0  2  0  0  0  0  0  0  0  0  0
  -28.4675    1.4922   -6.4277 C   0  0  1  0  0  0  0  0  0  0  0  0
  -27.6545    0.1789   -6.4462 C   0  0  1  0  0  0  0  0  0  0  0  0
  -26.4007    0.3900   -5.5888 C   0  0  1  0  0  0  0  0  0  0  0  0
  -25.8630   -1.0136   -5.3432 C   0  0  1  0  0  0  0  0  0  0  0  0
  -27.1280   -1.8871   -5.2597 C   0  0  2  0  0  0  0  0  0  0  0  0
  -28.3123   -0.9956   -5.6911 C   0  0  2  0  0  0  0  0  0  0  0  0
  -29.2202   -1.7183   -6.4824 O   0  0  0  0  0  0  0  0  0  0  0  0
  -27.3517   -0.2504   -7.9188 C   0  0  1  0  0  0  0  0  0  0  0  0
  -25.0021    3.8330   -8.2494 C   0  0  1  0  0  0  0  0  0  0  0  0
  -26.8979    5.2793   -5.7649 H   0  0  0  0  0  0  0  0  0  0  0  0
  -26.7436    5.5732   -7.5003 H   0  0  0  0  0  0  0  0  0  0  0  0
  -25.3513    6.8153   -5.1594 H   0  0  0  0  0  0  0  0  0  0  0  0
  -25.7398    7.5059   -6.7633 H   0  0  0  0  0  0  0  0  0  0  0  0
  -22.5435    4.8975   -7.2202 H   0  0  0  0  0  0  0  0  0  0  0  0
  -22.3624    5.4154   -5.5121 H   0  0  0  0  0  0  0  0  0  0  0  0
  -24.3729    4.3314   -4.8190 H   0  0  0  0  0  0  0  0  0  0  0  0
  -22.8955    2.4693   -6.7884 H   0  0  0  0  0  0  0  0  0  0  0  0
  -22.4417    2.8461   -5.0994 H   0  0  0  0  0  0  0  0  0  0  0  0
  -24.5022    1.8428   -4.2273 H   0  0  0  0  0  0  0  0  0  0  0  0
  -23.6265    0.6786   -5.2812 H   0  0  0  0  0  0  0  0  0  0  0  0
  -25.1188    1.1673   -7.1705 H   0  0  0  0  0  0  0  0  0  0  0  0
  -26.5104    3.0703   -5.1639 H   0  0  0  0  0  0  0  0  0  0  0  0
  -27.4805    2.5507   -8.0441 H   0  0  0  0  0  0  0  0  0  0  0  0
  -28.2212    3.6004   -6.8203 H   0  0  0  0  0  0  0  0  0  0  0  0
  -28.8006    1.7244   -5.3918 H   0  0  0  0  0  0  0  0  0  0  0  0
  -29.3816    1.3841   -7.0510 H   0  0  0  0  0  0  0  0  0  0  0  0
  -26.7228    0.7587   -4.5826 H   0  0  0  0  0  0  0  0  0  0  0  0
  -25.2152   -1.3386   -6.1864 H   0  0  0  0  0  0  0  0  0  0  0  0
  -25.2818   -1.0614   -4.3965 H   0  0  0  0  0  0  0  0  0  0  0  0
  -27.2827   -2.2534   -4.2213 H   0  0  0  0  0  0  0  0  0  0  0  0
  -27.0225   -2.7653   -5.9341 H   0  0  0  0  0  0  0  0  0  0  0  0
  -28.8268   -0.6256   -4.7718 H   0  0  0  0  0  0  0  0  0  0  0  0
  -30.0240   -1.1445   -6.5813 H   0  0  0  0  0  0  0  0  0  0  0  0
  -28.3018   -0.4131   -8.4705 H   0  0  0  0  0  0  0  0  0  0  0  0
  -26.7814    0.5076   -8.4869 H   0  0  0  0  0  0  0  0  0  0  0  0
  -26.7743   -1.1970   -7.9616 H   0  0  0  0  0  0  0  0  0  0  0  0
  -24.5168    2.8593   -8.4517 H   0  0  0  0  0  0  0  0  0  0  0  0
  -25.8990    3.9078   -8.8949 H   0  0  0  0  0  0  0  0  0  0  0  0
  -24.3185    4.6298   -8.6050 H   0  0  0  0  0  0  0  0  0  0  0  0
  1  2  1  0
  2  3  1  0
  3  4  2  0
  3  5  1  0
  6  5  1  0
  6  7  1  0
  7  8  1  0
  9  8  1  0
  9 10  1  0
  1 11  1  0
  6 11  1  0
 11 10  1  1
 10 12  1  0
 12 13  1  0
 13 14  1  0
  9 15  1  0
 14 15  1  0
 15 16  1  0
 16 17  1  0
 14 18  1  1
 17 18  1  0
 18 19  1  0
 14 20  1  0
 11 21  1  0
  1 22  1  1
  1 23  1  0
  2 24  1  1
  2 25  1  0
  5 26  1  6
  5 27  1  0
  6 28  1  1
  7 29  1  6
  7 30  1  0
  8 31  1  1
  8 32  1  0
  9 33  1  6
 10 34  1  1
 12 35  1  6
 12 36  1  0
 13 37  1  1
 13 38  1  0
 15 39  1  1
 16 40  1  6
 16 41  1  0
 17 42  1  1
 17 43  1  0
 18 44  1  1
 19 45  1  0
 20 46  1  6
 20 47  1  0
 20 48  1  0
 21 49  1  1
 21 50  1  0
 21 51  1  0
M  END
