7XJN_NSD_C_401
     RDKit          3D

 26 25  0  0  0  0  0  0  0  0999 V2000
    1.0260    8.6212   33.6432 C   0  0  0  0  0  0  0  0  0  0  0  0
    0.7247    9.4201   34.8602 N   0  0  0  0  0  0  0  0  0  0  0  0
   -0.1356    7.6902   33.3436 C   0  0  0  0  0  0  0  0  0  0  0  0
   -0.6846    7.6996   35.7311 N   0  0  0  0  0  0  0  0  0  0  0  0
   -0.5984    6.8658   34.5273 C   0  0  0  0  0  0  0  0  0  0  0  0
   -0.1039    8.0020   33.1168 N   0  0  0  0  0  0  0  0  0  0  0  0
    0.1139    8.9252   35.6675 C   0  0  0  0  0  0  0  0  0  0  0  0
    1.4114    8.7281   34.9177 C   0  0  0  0  0  0  0  0  0  0  0  0
    1.1553    8.6804   33.4199 C   0  0  0  0  0  0  0  0  0  0  0  0
    1.9119    8.0438   33.8067 H   0  0  0  0  0  0  0  0  0  0  0  0
    1.1758    9.2804   32.8138 H   0  0  0  0  0  0  0  0  0  0  0  0
    0.5816    8.7930   35.6519 H   0  0  0  0  0  0  0  0  0  0  0  0
   -0.1202    9.9701   34.7052 H   0  0  0  0  0  0  0  0  0  0  0  0
    0.1650    7.0196   32.5658 H   0  0  0  0  0  0  0  0  0  0  0  0
   -0.9604    8.3115   33.0632 H   0  0  0  0  0  0  0  0  0  0  0  0
   -0.3625    7.1483   36.5265 H   0  0  0  0  0  0  0  0  0  0  0  0
   -1.5627    6.4540   34.3143 H   0  0  0  0  0  0  0  0  0  0  0  0
    0.1078    6.0806   34.6998 H   0  0  0  0  0  0  0  0  0  0  0  0
   -0.2470    7.9862   32.1070 H   0  0  0  0  0  0  0  0  0  0  0  0
   -0.8745    8.5008   33.5617 H   0  0  0  0  0  0  0  0  0  0  0  0
    0.3378    9.2418   36.6648 H   0  0  0  0  0  0  0  0  0  0  0  0
   -0.4584    9.6610   35.1421 H   0  0  0  0  0  0  0  0  0  0  0  0
    1.8618    7.8084   35.2280 H   0  0  0  0  0  0  0  0  0  0  0  0
    2.0647    9.5478   35.1325 H   0  0  0  0  0  0  0  0  0  0  0  0
    1.1120    9.6804   33.0419 H   0  0  0  0  0  0  0  0  0  0  0  0
    1.9519    8.1349   32.9587 H   0  0  0  0  0  0  0  0  0  0  0  0
  1  2  1  0
  1  3  1  0
  4  5  1  0
  3  5  1  0
  4  7  1  0
  7  8  1  0
  6  9  1  0
  8  9  1  0
  1 10  1  0
  1 11  1  0
  2 12  1  0
  2 13  1  0
  3 14  1  0
  3 15  1  0
  4 16  1  0
  5 17  1  0
  5 18  1  0
  6 19  1  0
  6 20  1  0
  7 21  1  0
  7 22  1  0
  8 23  1  0
  8 24  1  0
  9 25  1  0
  9 26  1  0
M  END
