6YJA_2BA_B_201
     RDKit          3D

 44 50  0  0  0  0  0  0  0  0999 V2000
   -1.7402   -4.2443   19.7045 P   0  0  2  0  0  0  0  0  0  0  0  0
   -3.2511   -4.2197   19.8241 O   0  0  0  0  0  0  0  0  0  0  0  0
   -0.9037   -2.9987   19.7251 O   0  0  0  0  0  0  0  0  0  0  0  0
   -1.2787   -5.1762   18.4714 O   0  0  0  0  0  0  0  0  0  0  0  0
   -2.0857   -6.2428   18.0147 C   0  0  0  0  0  0  0  0  0  0  0  0
   -1.2650   -6.9736   16.9494 C   0  0  1  0  0  0  0  0  0  0  0  0
   -1.1193   -6.1131   15.8261 O   0  0  0  0  0  0  0  0  0  0  0  0
    0.1730   -7.3130   17.3225 C   0  0  1  0  0  0  0  0  0  0  0  0
    0.1730   -8.5360   18.0285 O   0  0  0  0  0  0  0  0  0  0  0  0
    0.8379   -7.4397   15.9563 C   0  0  1  0  0  0  0  0  0  0  0  0
    0.3895   -8.6895   15.3869 O   0  0  0  0  0  0  0  0  0  0  0  0
    0.1307   -6.3581   15.1711 C   0  0  2  0  0  0  0  0  0  0  0  0
    0.8157   -5.0561   15.2332 N   0  0  0  0  0  0  0  0  0  0  0  0
    0.2646   -3.8362   15.4237 C   0  0  0  0  0  0  0  0  0  0  0  0
    1.2161   -2.8636   15.3865 N   0  0  0  0  0  0  0  0  0  0  0  0
    2.3910   -3.4849   15.1358 C   0  0  0  0  0  0  0  0  0  0  0  0
    3.7818   -3.0714   14.9609 C   0  0  0  0  0  0  0  0  0  0  0  0
    4.1160   -1.7454   15.0170 N   0  0  0  0  0  0  0  0  0  0  0  0
    4.6790   -4.0594   14.7105 N   0  0  0  0  0  0  0  0  0  0  0  0
    4.3636   -5.3580   14.6479 C   0  0  0  0  0  0  0  0  0  0  0  0
    3.1066   -5.8056   14.7949 N   0  0  0  0  0  0  0  0  0  0  0  0
    2.1188   -4.9215   15.0323 C   0  0  0  0  0  0  0  0  0  0  0  0
    1.3706   -8.9220   19.0153 P   0  0  2  0  0  0  0  0  0  0  0  0
    2.6507   -8.7179   18.2449 O   0  0  0  0  0  0  0  0  0  0  0  0
    1.0313  -10.2421   19.6680 O   0  0  0  0  0  0  0  0  0  0  0  0
    1.3112   -7.7863   20.1536 O   0  0  0  0  0  0  0  0  0  0  0  0
    0.2692   -7.8743   21.1228 C   0  0  0  0  0  0  0  0  0  0  0  0
    0.2943   -6.6389   22.0192 C   0  0  1  0  0  0  0  0  0  0  0  0
    1.5562   -6.5009   22.6767 O   0  0  0  0  0  0  0  0  0  0  0  0
    0.1151   -5.3367   21.2561 C   0  0  1  0  0  0  0  0  0  0  0  0
   -1.2648   -5.1317   20.9489 O   0  0  0  0  0  0  0  0  0  0  0  0
    0.7109   -4.3298   22.2234 C   0  0  1  0  0  0  0  0  0  0  0  0
   -0.2443   -3.9701   23.2357 O   0  0  0  0  0  0  0  0  0  0  0  0
    1.8414   -5.1231   22.8801 C   0  0  2  0  0  0  0  0  0  0  0  0
    3.0765   -4.8201   22.1282 N   0  0  0  0  0  0  0  0  0  0  0  0
    4.1567   -5.6121   21.9788 C   0  0  0  0  0  0  0  0  0  0  0  0
    5.1038   -5.0088   21.2026 N   0  0  0  0  0  0  0  0  0  0  0  0
    4.6020   -3.8166   20.8304 C   0  0  0  0  0  0  0  0  0  0  0  0
    5.0534   -2.6696   20.0026 C   0  0  0  0  0  0  0  0  0  0  0  0
    6.2709   -2.6761   19.3985 N   0  0  0  0  0  0  0  0  0  0  0  0
    4.2088   -1.6182   19.8800 N   0  0  0  0  0  0  0  0  0  0  0  0
    2.9980   -1.5883   20.4675 C   0  0  0  0  0  0  0  0  0  0  0  0
    2.5236   -2.5981   21.2242 N   0  0  0  0  0  0  0  0  0  0  0  0
    3.2688   -3.7027   21.4412 C   0  0  0  0  0  0  0  0  0  0  0  0
  1  2  2  0
  1  3  1  6
  1  4  1  0
  4  5  1  0
  6  5  1  1
  6  7  1  0
  6  8  1  0
  8  9  1  6
  8 10  1  0
 10 11  1  6
  7 12  1  0
 10 12  1  0
 12 13  1  1
 13 14  1  0
 14 15  2  0
 15 16  1  0
 16 17  2  0
 17 18  1  0
 17 19  1  0
 19 20  2  0
 20 21  1  0
 13 22  1  0
 16 22  1  0
 21 22  2  0
  9 23  1  0
 23 24  2  0
 23 25  1  1
 23 26  1  0
 26 27  1  0
 28 27  1  6
 28 29  1  0
 28 30  1  0
  1 31  1  0
 30 31  1  1
 30 32  1  0
 32 33  1  1
 29 34  1  0
 32 34  1  0
 34 35  1  6
 35 36  1  0
 36 37  2  0
 37 38  1  0
 38 39  2  0
 39 40  1  0
 39 41  1  0
 41 42  2  0
 42 43  1  0
 35 44  1  0
 38 44  1  0
 43 44  2  0
M  END
