
     RDKit          3D

 49 51  0  0  0  0  0  0  0  0999 V2000
   65.3707   -2.1211    2.7464 N   0  0  0  0  0  0  0  0  0  0  0  0
   66.5000   -2.4733    3.4762 C   0  0  0  0  0  0  0  0  0  0  0  0
   66.6922   -1.7828    4.6434 N   0  0  0  0  0  0  0  0  0  0  0  0
   65.9121   -0.7667    5.1159 C   0  0  0  0  0  0  0  0  0  0  0  0
   64.7381   -0.4309    4.2934 C   0  0  0  0  0  0  0  0  0  0  0  0
   64.5145   -1.1209    3.1715 C   0  0  0  0  0  0  0  0  0  0  0  0
   67.3123   -3.3269    3.1209 O   0  0  0  0  0  0  0  0  0  0  0  0
   66.1632   -0.1585    6.1498 O   0  0  0  0  0  0  0  0  0  0  0  0
   65.0850   -2.9196    1.5625 C   0  0  1  0  0  0  0  0  0  0  0  0
   64.0616   -4.0380    1.8164 C   0  0  2  0  0  0  0  0  0  0  0  0
   64.5611   -5.1985    2.4637 O   0  0  0  0  0  0  0  0  0  0  0  0
   63.6327   -4.3330    0.3911 C   0  0  1  0  0  0  0  0  0  0  0  0
   63.5597   -2.9313   -0.2244 C   0  0  2  0  0  0  0  0  0  0  0  0
   64.5289   -2.1239    0.4929 O   0  0  0  0  0  0  0  0  0  0  0  0
   64.6568   -5.1456   -0.2196 O   0  0  0  0  0  0  0  0  0  0  0  0
   62.1648   -2.3184   -0.0756 C   0  0  0  0  0  0  0  0  0  0  0  0
   62.0985   -1.5945    1.1475 O   0  0  0  0  0  0  0  0  0  0  0  0
   61.4572   -0.1241    1.0908 P   0  0  1  0  0  5  0  0  0  0  0  0
   60.5602    0.2098    2.2355 O   0  0  0  0  0  0  0  0  0  0  0  0
   62.7375    0.8413    1.1045 O   0  0  0  0  0  0  0  0  0  0  0  0
   60.8486    0.0874   -0.3556 O   0  0  0  0  0  0  0  0  0  0  0  0
   60.5170    1.5186   -0.9478 P   0  0  2  0  0  5  0  0  0  0  0  0
   61.5592    2.1070   -1.8402 O   0  0  0  0  0  0  0  0  0  0  0  0
   60.3453    2.4234    0.3643 O   0  0  0  0  0  0  0  0  0  0  0  0
   59.0444    1.4187   -1.5651 O   0  0  0  0  0  0  0  0  0  0  0  0
   57.9772    1.0918   -0.6906 C   0  0  2  0  0  0  0  0  0  0  0  0
   57.1928   -0.1485   -1.1912 C   0  0  2  0  0  0  0  0  0  0  0  0
   58.0110   -1.3627   -1.2972 N   0  0  0  0  0  0  0  0  0  0  0  0
   58.4426   -2.0179   -0.1625 C   0  0  0  0  0  0  0  0  0  0  0  0
   58.2873   -1.5693    0.9676 O   0  0  0  0  0  0  0  0  0  0  0  0
   59.0811   -3.3525   -0.4309 C   0  0  0  0  0  0  0  0  0  0  0  0
   56.4969    0.1677   -2.5345 C   0  0  1  0  0  0  0  0  0  0  0  0
   55.5734   -0.9032   -2.8289 O   0  0  0  0  0  0  0  0  0  0  0  0
   55.6702    1.4655   -2.4121 C   0  0  2  0  0  0  0  0  0  0  0  0
   55.1359    1.8275   -3.6881 O   0  0  0  0  0  0  0  0  0  0  0  0
   56.5255    2.6010   -1.8426 C   0  0  2  0  0  0  0  0  0  0  0  0
   57.0850    2.2109   -0.5769 O   0  0  0  0  0  0  0  0  0  0  0  0
   55.6975    3.8731   -1.6049 C   0  0  0  0  0  0  0  0  0  0  0  0
   54.6759    3.6049   -0.6415 O   0  0  0  0  0  0  0  0  0  0  0  0
   56.0916   -1.9174   -3.6884 C   0  0  1  0  0  0  0  0  0  0  0  0
   56.1050   -3.3034   -3.0059 C   0  0  0  0  0  0  0  0  0  0  0  0
   56.7670   -4.2515   -3.4357 O   0  0  0  0  0  0  0  0  0  0  0  0
   55.1796   -1.9473   -4.9131 C   0  0  0  0  0  0  0  0  0  0  0  0
   55.3118   -3.3929   -1.8777 N   0  0  0  0  0  0  0  0  0  0  0  0
   55.8324   -3.9735   -0.6358 C   0  0  2  0  0  0  0  0  0  0  0  0
   55.2491   -5.3765   -0.4609 C   0  0  0  0  0  0  0  0  0  0  0  0
   54.3759   -5.7016    0.3341 O   0  0  0  0  0  0  0  0  0  0  0  0
   55.8080   -6.2871   -1.2867 O   0  0  0  0  0  0  0  0  0  0  0  0
   55.4535   -3.0931    0.5504 C   0  0  0  0  0  0  0  0  0  0  0  0
  1  2  4  0
  2  3  4  0
  3  4  4  0
  4  5  4  0
  1  6  4  0
  5  6  4  0
  2  7  2  0
  4  8  2  0
  9  1  1  1
  9 10  1  0
 10 11  1  6
 10 12  1  0
 12 13  1  0
  9 14  1  0
 13 14  1  0
 12 15  1  6
 13 16  1  1
 16 17  1  0
 18 17  1  0
 18 19  2  0
 18 20  1  6
 18 21  1  0
 22 21  1  0
 22 23  2  0
 22 24  1  1
 22 25  1  0
 26 25  1  6
 26 27  1  0
 27 28  1  6
 28 29  1  0
 29 30  2  0
 29 31  1  0
 27 32  1  0
 32 33  1  1
 32 34  1  0
 34 35  1  6
 34 36  1  0
 26 37  1  0
 36 37  1  0
 36 38  1  1
 38 39  1  0
 33 40  1  0
 40 41  1  0
 41 42  2  0
 40 43  1  6
 41 44  1  0
 44 45  1  0
 45 46  1  0
 46 47  2  0
 46 48  1  0
 45 49  1  1
M  END
