7SUC_COM_A_604
     RDKit          3D

 13 12  0  0  0  0  0  0  0  0999 V2000
   26.2367   33.0004   -6.4376 C   0  0  0  0  0  0  0  0  0  0  0  0
   27.3079   34.0031   -5.9858 C   0  0  0  0  0  0  0  0  0  0  0  0
   26.7677   32.0847   -7.8940 S   0  0  0  0  0  0  0  0  0  0  0  0
   26.5527   35.5275   -5.3883 S   0  0  1  0  0  6  0  0  0  0  0  0
   25.1562   35.6360   -5.9262 O   0  0  0  0  0  0  0  0  0  0  0  0
   26.5368   35.4891   -3.8735 O   0  0  0  0  0  0  0  0  0  0  0  0
   27.3827   36.7048   -5.8050 O   0  0  0  0  0  0  0  0  0  0  0  0
   26.0540   32.3127   -5.6465 H   0  0  0  0  0  0  0  0  0  0  0  0
   25.3416   33.5408   -6.6830 H   0  0  0  0  0  0  0  0  0  0  0  0
   27.8946   33.5691   -5.2012 H   0  0  0  0  0  0  0  0  0  0  0  0
   27.9264   34.2352   -6.8214 H   0  0  0  0  0  0  0  0  0  0  0  0
   27.9061   31.3880   -7.6075 H   0  0  0  0  0  0  0  0  0  0  0  0
   27.4072   36.7495   -6.7692 H   0  0  0  0  0  0  0  0  0  0  0  0
  1  2  1  0
  1  3  1  0
  2  4  1  0
  4  5  2  0
  4  6  2  0
  4  7  1  6
  1  8  1  0
  1  9  1  0
  2 10  1  0
  2 11  1  0
  3 12  1  0
  7 13  1  0
M  END
