7KRU_ATP_A_607
     RDKit          3D

 31 33  0  0  0  0  0  0  0  0999 V2000
   54.8476   53.9935  217.6798 P   0  0  2  0  0  0  0  0  0  0  0  0
   55.6856   54.8360  218.6092 O   0  0  0  0  0  0  0  0  0  0  0  0
   53.9807   52.8601  218.5866 O   0  0  0  0  0  0  0  0  0  0  0  0
   55.8806   53.2539  216.5778 O   0  0  0  0  0  0  0  0  0  0  0  0
   54.1221   56.6427  217.1889 P   0  0  1  0  0  0  0  0  0  0  0  0
   52.9242   57.5381  217.0032 O   0  0  0  0  0  0  0  0  0  0  0  0
   54.8150   56.8247  218.7270 O   0  0  0  0  0  0  0  0  0  0  0  0
   53.7855   55.0231  216.8639 O   0  0  0  0  0  0  0  0  0  0  0  0
   55.0539   56.4687  214.5650 P   0  0  2  0  0  0  0  0  0  0  0  0
   53.8269   57.1119  213.9785 O   0  0  0  0  0  0  0  0  0  0  0  0
   54.7983   54.7989  214.6133 O   0  0  0  0  0  0  0  0  0  0  0  0
   55.3203   57.1291  216.0794 O   0  0  0  0  0  0  0  0  0  0  0  0
   56.4304   56.7545  213.6246 O   0  0  0  0  0  0  0  0  0  0  0  0
   57.5422   56.5286  214.4357 C   0  0  0  0  0  0  0  0  0  0  0  0
   58.6595   57.3272  213.8543 C   0  0  1  0  0  0  0  0  0  0  0  0
   58.2408   58.5366  213.3062 O   0  0  0  0  0  0  0  0  0  0  0  0
   59.5679   57.8217  214.9616 C   0  0  1  0  0  0  0  0  0  0  0  0
   60.3452   56.7489  215.3597 O   0  0  0  0  0  0  0  0  0  0  0  0
   60.3654   58.8652  214.1973 C   0  0  1  0  0  0  0  0  0  0  0  0
   61.4163   58.1452  213.6026 O   0  0  0  0  0  0  0  0  0  0  0  0
   59.3645   59.3288  213.1825 C   0  0  2  0  0  0  0  0  0  0  0  0
   58.9922   60.7185  213.3472 N   0  0  0  0  0  0  0  0  0  0  0  0
   57.9127   61.0870  214.0968 C   0  0  0  0  0  0  0  0  0  0  0  0
   57.7974   62.4273  214.0802 N   0  0  0  0  0  0  0  0  0  0  0  0
   58.8088   62.8942  213.3175 C   0  0  0  0  0  0  0  0  0  0  0  0
   59.2062   64.1809  212.9359 C   0  0  0  0  0  0  0  0  0  0  0  0
   58.4434   65.3133  213.4008 N   0  0  0  0  0  0  0  0  0  0  0  0
   60.2841   64.3217  212.1496 N   0  0  0  0  0  0  0  0  0  0  0  0
   61.0033   63.2611  211.7108 C   0  0  0  0  0  0  0  0  0  0  0  0
   60.6453   61.9944  212.0626 N   0  0  0  0  0  0  0  0  0  0  0  0
   59.5658   61.8299  212.8517 C   0  0  0  0  0  0  0  0  0  0  0  0
  1  2  2  0
  1  3  1  1
  1  4  1  0
  5  6  2  0
  5  7  1  1
  1  8  1  0
  5  8  1  0
  9 10  2  0
  9 11  1  1
  5 12  1  0
  9 12  1  0
  9 13  1  0
 13 14  1  0
 15 14  1  1
 15 16  1  0
 15 17  1  0
 17 18  1  6
 17 19  1  0
 19 20  1  6
 16 21  1  0
 19 21  1  0
 21 22  1  1
 22 23  1  0
 23 24  2  0
 24 25  1  0
 25 26  2  0
 26 27  1  0
 26 28  1  0
 28 29  2  0
 29 30  1  0
 22 31  1  0
 25 31  1  0
 30 31  2  0
M  END
$$$$
