1Q1G_MTI_D_304
     RDKit          3D

 20 22  0  0  0  0  0  0  0  0999 V2000
   60.3470    5.9670   97.7270 C   0  0  0  0  0  0  0  0  0  0  0  0
   60.8880    7.4040   98.6490 S   0  0  0  0  0  0  0  0  0  0  0  0
   61.4890    8.4820   97.3110 C   0  0  0  0  0  0  0  0  0  0  0  0
   61.6280    9.9490   97.7230 C   0  0  1  0  0  0  0  0  0  0  0  0
   62.5010   10.6220   96.7530 N   0  0  0  0  0  0  0  0  0  0  0  0
   60.3050   11.4870   96.3590 C   0  0  2  0  0  0  0  0  0  0  0  0
   59.8720   12.8840   96.5310 O   0  0  0  0  0  0  0  0  0  0  0  0
   60.2900   10.7070   97.7520 C   0  0  2  0  0  0  0  0  0  0  0  0
   60.2780   11.6600   98.8920 O   0  0  0  0  0  0  0  0  0  0  0  0
   61.7590   11.4020   95.7650 C   0  0  2  0  0  0  0  0  0  0  0  0
   61.9260   10.6680   94.4000 C   0  0  0  0  0  0  0  0  0  0  0  0
   63.1530   10.4420   93.7750 C   0  0  0  0  0  0  0  0  0  0  0  0
   63.0950    9.7960   92.6350 N   0  0  0  0  0  0  0  0  0  0  0  0
   61.7420    9.5460   92.4400 C   0  0  0  0  0  0  0  0  0  0  0  0
   61.0690    8.8680   91.3530 C   0  0  0  0  0  0  0  0  0  0  0  0
   61.5990    8.3660   90.3620 O   0  0  0  0  0  0  0  0  0  0  0  0
   59.6460    8.8010   91.4950 N   0  0  0  0  0  0  0  0  0  0  0  0
   58.9260    9.3380   92.5860 C   0  0  0  0  0  0  0  0  0  0  0  0
   59.5680    9.9850   93.6270 N   0  0  0  0  0  0  0  0  0  0  0  0
   60.9810   10.0660   93.5080 C   0  0  0  0  0  0  0  0  0  0  0  0
  1  2  1  0
  2  3  1  0
  4  3  1  6
  4  5  1  0
  6  7  1  1
  4  8  1  0
  6  8  1  0
  8  9  1  1
  5 10  1  0
  6 10  1  0
 10 11  1  6
 11 12  2  0
 12 13  1  0
 13 14  1  0
 14 15  1  0
 15 16  2  0
 15 17  1  0
 17 18  1  0
 18 19  2  0
 11 20  1  0
 14 20  2  0
 19 20  1  0
M  CHG  1   5   1
M  END
$$$$
1Q1G_MTI_B_302
     RDKit          3D

 20 22  0  0  0  0  0  0  0  0999 V2000
   20.6090  -10.3320   86.1010 C   0  0  0  0  0  0  0  0  0  0  0  0
   19.8540  -11.8800   86.6340 S   0  0  0  0  0  0  0  0  0  0  0  0
   21.2350  -12.6290   87.5520 C   0  0  0  0  0  0  0  0  0  0  0  0
   21.0410  -12.6960   89.0730 C   0  0  1  0  0  0  0  0  0  0  0  0
   21.9610  -13.7220   89.5880 N   0  0  0  0  0  0  0  0  0  0  0  0
   22.8800  -11.6210   90.2700 C   0  0  2  0  0  0  0  0  0  0  0  0
   23.0940  -11.1700   91.6530 O   0  0  0  0  0  0  0  0  0  0  0  0
   21.3680  -11.3750   89.8030 C   0  0  2  0  0  0  0  0  0  0  0  0
   20.4690  -11.1920   90.9830 O   0  0  0  0  0  0  0  0  0  0  0  0
   23.2060  -13.1540   90.1150 C   0  0  2  0  0  0  0  0  0  0  0  0
   24.3410  -13.5370   89.1140 C   0  0  0  0  0  0  0  0  0  0  0  0
   24.7310  -14.8430   88.8180 C   0  0  0  0  0  0  0  0  0  0  0  0
   25.7040  -14.9540   87.9410 N   0  0  0  0  0  0  0  0  0  0  0  0
   26.0230  -13.6460   87.5930 C   0  0  0  0  0  0  0  0  0  0  0  0
   27.0230  -13.1320   86.6600 C   0  0  0  0  0  0  0  0  0  0  0  0
   27.8110  -13.7960   85.9740 O   0  0  0  0  0  0  0  0  0  0  0  0
   27.0530  -11.7020   86.5690 N   0  0  0  0  0  0  0  0  0  0  0  0
   26.2050  -10.8370   87.2990 C   0  0  0  0  0  0  0  0  0  0  0  0
   25.2570  -11.3260   88.1800 N   0  0  0  0  0  0  0  0  0  0  0  0
   25.2020  -12.7380   88.2930 C   0  0  0  0  0  0  0  0  0  0  0  0
  1  2  1  0
  2  3  1  0
  4  3  1  6
  4  5  1  0
  6  7  1  1
  4  8  1  0
  6  8  1  0
  8  9  1  1
  5 10  1  0
  6 10  1  0
 10 11  1  6
 11 12  2  0
 12 13  1  0
 13 14  1  0
 14 15  1  0
 15 16  2  0
 15 17  1  0
 17 18  1  0
 18 19  2  0
 11 20  1  0
 14 20  2  0
 19 20  1  0
M  CHG  1   5   1
M  END
$$$$
1Q1G_MTI_A_301
     RDKit          3D

 20 22  0  0  0  0  0  0  0  0999 V2000
   10.0600    1.4930   95.8060 C   0  0  0  0  0  0  0  0  0  0  0  0
    9.1690    0.7520   94.4400 S   0  0  0  0  0  0  0  0  0  0  0  0
    8.4420    2.2270   93.6690 C   0  0  0  0  0  0  0  0  0  0  0  0
    8.2100    2.0730   92.1670 C   0  0  1  0  0  0  0  0  0  0  0  0
    7.2450    3.0960   91.7510 N   0  0  0  0  0  0  0  0  0  0  0  0
    9.3560    3.7780   90.8520 C   0  0  2  0  0  0  0  0  0  0  0  0
    9.7040    3.9350   89.4300 O   0  0  0  0  0  0  0  0  0  0  0  0
    9.4870    2.2590   91.3320 C   0  0  2  0  0  0  0  0  0  0  0  0
    9.4770    1.3230   90.1740 O   0  0  0  0  0  0  0  0  0  0  0  0
    7.8870    4.2530   91.1400 C   0  0  2  0  0  0  0  0  0  0  0  0
    7.7120    5.4680   92.1150 C   0  0  0  0  0  0  0  0  0  0  0  0
    6.4840    5.9820   92.5230 C   0  0  0  0  0  0  0  0  0  0  0  0
    6.5410    7.0010   93.3410 N   0  0  0  0  0  0  0  0  0  0  0  0
    7.8920    7.2270   93.5320 C   0  0  0  0  0  0  0  0  0  0  0  0
    8.5660    8.2330   94.3350 C   0  0  0  0  0  0  0  0  0  0  0  0
    8.0270    9.1020   95.0270 O   0  0  0  0  0  0  0  0  0  0  0  0
    9.9960    8.1590   94.2860 N   0  0  0  0  0  0  0  0  0  0  0  0
   10.7160    7.2090   93.5330 C   0  0  0  0  0  0  0  0  0  0  0  0
   10.0740    6.2510   92.7650 N   0  0  0  0  0  0  0  0  0  0  0  0
    8.6570    6.3040   92.7940 C   0  0  0  0  0  0  0  0  0  0  0  0
  1  2  1  0
  2  3  1  0
  4  3  1  1
  4  5  1  0
  6  7  1  6
  4  8  1  0
  6  8  1  0
  8  9  1  6
  5 10  1  0
  6 10  1  0
 10 11  1  1
 11 12  2  0
 12 13  1  0
 13 14  1  0
 14 15  1  0
 15 16  2  0
 15 17  1  0
 17 18  1  0
 18 19  2  0
 11 20  1  0
 14 20  2  0
 19 20  1  0
M  CHG  1   5   1
M  END
$$$$
1Q1G_MTI_E_305
     RDKit          3D

 20 22  0  0  0  0  0  0  0  0999 V2000
   31.2230   37.7780   79.8190 C   0  0  0  0  0  0  0  0  0  0  0  0
   31.9850   39.3500   79.3720 S   0  0  0  0  0  0  0  0  0  0  0  0
   33.3320   39.3920   80.5830 C   0  0  0  0  0  0  0  0  0  0  0  0
   34.7390   39.3330   79.9780 C   0  0  1  0  0  0  0  0  0  0  0  0
   35.6120   40.1420   80.8370 N   0  0  0  0  0  0  0  0  0  0  0  0
   36.1980   37.8660   81.2710 C   0  0  2  0  0  0  0  0  0  0  0  0
   37.5190   37.2560   81.0450 O   0  0  0  0  0  0  0  0  0  0  0  0
   35.3340   37.9080   79.9250 C   0  0  2  0  0  0  0  0  0  0  0  0
   36.2010   37.7530   78.7200 O   0  0  0  0  0  0  0  0  0  0  0  0
   36.3420   39.3340   81.8110 C   0  0  2  0  0  0  0  0  0  0  0  0
   35.7250   39.6400   83.2150 C   0  0  0  0  0  0  0  0  0  0  0  0
   35.7210   40.9000   83.8240 C   0  0  0  0  0  0  0  0  0  0  0  0
   35.1480   40.9560   85.0060 N   0  0  0  0  0  0  0  0  0  0  0  0
   34.7160   39.6540   85.2550 C   0  0  0  0  0  0  0  0  0  0  0  0
   34.0130   39.0950   86.4080 C   0  0  0  0  0  0  0  0  0  0  0  0
   33.6540   39.6980   87.4260 O   0  0  0  0  0  0  0  0  0  0  0  0
   33.7380   37.6990   86.2990 N   0  0  0  0  0  0  0  0  0  0  0  0
   34.0950   36.9010   85.1880 C   0  0  0  0  0  0  0  0  0  0  0  0
   34.7600   37.4300   84.0930 N   0  0  0  0  0  0  0  0  0  0  0  0
   35.0490   38.8090   84.1720 C   0  0  0  0  0  0  0  0  0  0  0  0
  1  2  1  0
  2  3  1  0
  4  3  1  1
  4  5  1  0
  6  7  1  6
  4  8  1  0
  6  8  1  0
  8  9  1  6
  5 10  1  0
  6 10  1  0
 10 11  1  1
 11 12  2  0
 12 13  1  0
 13 14  1  0
 14 15  1  0
 15 16  2  0
 15 17  1  0
 17 18  1  0
 18 19  2  0
 11 20  1  0
 14 20  2  0
 19 20  1  0
M  CHG  1   5   1
M  END
$$$$
1Q1G_MTI_C_303
     RDKit          3D

 20 22  0  0  0  0  0  0  0  0999 V2000
   50.3080   13.2800  112.1620 C   0  0  0  0  0  0  0  0  0  0  0  0
   51.1020   11.9990  113.1490 S   0  0  0  0  0  0  0  0  0  0  0  0
   49.6470   11.0240  113.6240 C   0  0  0  0  0  0  0  0  0  0  0  0
   49.8340    9.5190  113.4620 C   0  0  1  0  0  0  0  0  0  0  0  0
   48.9930    8.8560  114.4630 N   0  0  0  0  0  0  0  0  0  0  0  0
   47.9830    8.3750  112.3480 C   0  0  2  0  0  0  0  0  0  0  0  0
   47.8620    7.0390  111.7410 O   0  0  0  0  0  0  0  0  0  0  0  0
   49.4230    8.9980  112.0710 C   0  0  2  0  0  0  0  0  0  0  0  0
   50.3710    7.9480  111.6140 O   0  0  0  0  0  0  0  0  0  0  0  0
   47.7600    8.3060  113.8990 C   0  0  2  0  0  0  0  0  0  0  0  0
   46.5820    9.1380  114.4870 C   0  0  0  0  0  0  0  0  0  0  0  0
   46.2780    9.2150  115.8440 C   0  0  0  0  0  0  0  0  0  0  0  0
   45.2510    9.9690  116.1530 N   0  0  0  0  0  0  0  0  0  0  0  0
   44.7940   10.4620  114.9330 C   0  0  0  0  0  0  0  0  0  0  0  0
   43.6830   11.3510  114.6390 C   0  0  0  0  0  0  0  0  0  0  0  0
   42.9000   11.8560  115.4610 O   0  0  0  0  0  0  0  0  0  0  0  0
   43.5200   11.6370  113.2450 N   0  0  0  0  0  0  0  0  0  0  0  0
   44.3430   11.1250  112.2180 C   0  0  0  0  0  0  0  0  0  0  0  0
   45.4060   10.2780  112.4980 N   0  0  0  0  0  0  0  0  0  0  0  0
   45.5900    9.9760  113.8740 C   0  0  0  0  0  0  0  0  0  0  0  0
  1  2  1  0
  2  3  1  0
  4  3  1  6
  4  5  1  0
  6  7  1  1
  4  8  1  0
  6  8  1  0
  8  9  1  1
  5 10  1  0
  6 10  1  0
 10 11  1  6
 11 12  2  0
 12 13  1  0
 13 14  1  0
 14 15  1  0
 15 16  2  0
 15 17  1  0
 17 18  1  0
 18 19  2  0
 11 20  1  0
 14 20  2  0
 19 20  1  0
M  CHG  1   5   1
M  END
$$$$
1Q1G_MTI_F_306
     RDKit          3D

 20 22  0  0  0  0  0  0  0  0999 V2000
   35.7510   26.4540   66.2660 C   0  0  0  0  0  0  0  0  0  0  0  0
   34.5750   27.5210   65.4310 S   0  0  0  0  0  0  0  0  0  0  0  0
   33.3440   26.3020   64.8930 C   0  0  0  0  0  0  0  0  0  0  0  0
   31.9070   26.7610   65.1170 C   0  0  1  0  0  0  0  0  0  0  0  0
   31.0410   26.0300   64.1980 N   0  0  0  0  0  0  0  0  0  0  0  0
   30.6020   25.1360   66.3640 C   0  0  2  0  0  0  0  0  0  0  0  0
   29.3200   25.1720   67.0690 O   0  0  0  0  0  0  0  0  0  0  0  0
   31.3990   26.5060   66.5400 C   0  0  2  0  0  0  0  0  0  0  0  0
   30.4910   27.5980   66.9450 O   0  0  0  0  0  0  0  0  0  0  0  0
   30.3940   24.8870   64.8300 C   0  0  2  0  0  0  0  0  0  0  0  0
   31.0360   23.5960   64.2260 C   0  0  0  0  0  0  0  0  0  0  0  0
   30.9900   23.2520   62.8750 C   0  0  0  0  0  0  0  0  0  0  0  0
   31.5900   22.1240   62.5570 N   0  0  0  0  0  0  0  0  0  0  0  0
   32.0960   21.6420   63.7600 C   0  0  0  0  0  0  0  0  0  0  0  0
   32.8500   20.4330   64.0420 C   0  0  0  0  0  0  0  0  0  0  0  0
   33.1940   19.5680   63.2270 O   0  0  0  0  0  0  0  0  0  0  0  0
   33.2040   20.2720   65.4160 N   0  0  0  0  0  0  0  0  0  0  0  0
   32.8690   21.1860   66.4420 C   0  0  0  0  0  0  0  0  0  0  0  0
   32.1460   22.3390   66.1780 N   0  0  0  0  0  0  0  0  0  0  0  0
   31.7810   22.5230   64.8190 C   0  0  0  0  0  0  0  0  0  0  0  0
  1  2  1  0
  2  3  1  0
  4  3  1  1
  4  5  1  0
  6  7  1  1
  4  8  1  0
  6  8  1  0
  8  9  1  6
  5 10  1  0
  6 10  1  0
 10 11  1  6
 11 12  2  0
 12 13  1  0
 13 14  1  0
 14 15  1  0
 15 16  2  0
 15 17  1  0
 17 18  1  0
 18 19  2  0
 11 20  1  0
 14 20  2  0
 19 20  1  0
M  CHG  1   5   1
M  END
$$$$
