1Q1G_MTI_F_306
     RDKit          3D

 37 39  0  0  0  0  0  0  0  0999 V2000
   -1.9346    1.7973    4.3958 C   0  0  0  0  0  0  0  0  0  0  0  0
   -0.9850    2.3910    2.9579 S   0  0  0  0  0  0  0  0  0  0  0  0
    0.1418    0.9519    2.8609 C   0  0  0  0  0  0  0  0  0  0  0  0
   -0.4722   -0.1861    2.0216 C   0  0  1  0  0  0  0  0  0  0  0  0
   -0.7135    0.2116    0.6282 N   0  0  0  0  0  4  0  0  0  0  0  0
   -0.0062   -2.1271    0.6994 C   0  0  2  0  0  0  0  0  0  0  0  0
   -0.9867   -3.0853    1.0104 O   0  0  0  0  0  0  0  0  0  0  0  0
    0.4419   -1.4019    1.9618 C   0  0  2  0  0  0  0  0  0  0  0  0
    0.2998   -2.1945    3.1124 O   0  0  0  0  0  0  0  0  0  0  0  0
   -0.6104   -1.0167   -0.1851 C   0  0  2  0  0  0  0  0  0  0  0  0
    0.2194   -0.7890   -1.4279 C   0  0  0  0  0  0  0  0  0  0  0  0
    1.5712   -0.4434   -1.4981 C   0  0  0  0  0  0  0  0  0  0  0  0
    1.9628   -0.3079   -2.7888 N   0  0  0  0  0  0  0  0  0  0  0  0
    0.8694   -0.5620   -3.5289 C   0  0  0  0  0  0  0  0  0  0  0  0
    0.7230   -0.5543   -4.9103 C   0  0  0  0  0  0  0  0  0  0  0  0
    1.6934   -0.2871   -5.6681 O   0  0  0  0  0  0  0  0  0  0  0  0
   -0.5095   -0.8458   -5.4266 N   0  0  0  0  0  0  0  0  0  0  0  0
   -1.5710   -1.1364   -4.6059 C   0  0  0  0  0  0  0  0  0  0  0  0
   -1.4190   -1.1411   -3.2472 N   0  0  0  0  0  0  0  0  0  0  0  0
   -0.1971   -0.8535   -2.7384 C   0  0  0  0  0  0  0  0  0  0  0  0
   -1.2652    1.6754    5.2726 H   0  0  0  0  0  0  0  0  0  0  0  0
   -2.4304    0.8331    4.1641 H   0  0  0  0  0  0  0  0  0  0  0  0
   -2.7140    2.5459    4.6454 H   0  0  0  0  0  0  0  0  0  0  0  0
    0.3865    0.5844    3.8805 H   0  0  0  0  0  0  0  0  0  0  0  0
    1.0925    1.2917    2.3970 H   0  0  0  0  0  0  0  0  0  0  0  0
   -1.4385   -0.4955    2.4833 H   0  0  0  0  0  0  0  0  0  0  0  0
   -1.6711    0.6262    0.5363 H   0  0  0  0  0  0  0  0  0  0  0  0
   -0.0117    0.9294    0.3274 H   0  0  0  0  0  0  0  0  0  0  0  0
    0.8727   -2.6294    0.2291 H   0  0  0  0  0  0  0  0  0  0  0  0
   -1.0888   -3.6557    0.2041 H   0  0  0  0  0  0  0  0  0  0  0  0
    1.5024   -1.0745    1.8422 H   0  0  0  0  0  0  0  0  0  0  0  0
    1.0317   -2.8644    3.0821 H   0  0  0  0  0  0  0  0  0  0  0  0
   -1.6326   -1.3240   -0.5077 H   0  0  0  0  0  0  0  0  0  0  0  0
    2.2280   -0.2963   -0.6505 H   0  0  0  0  0  0  0  0  0  0  0  0
    2.9160   -0.0545   -3.1314 H   0  0  0  0  0  0  0  0  0  0  0  0
   -0.6513   -0.8485   -6.4619 H   0  0  0  0  0  0  0  0  0  0  0  0
   -2.5381   -1.3638   -5.0347 H   0  0  0  0  0  0  0  0  0  0  0  0
  1  2  1  0
  2  3  1  0
  4  3  1  0
  4  5  1  0
  6  7  1  0
  4  8  1  0
  6  8  1  0
  8  9  1  0
  5 10  1  0
  6 10  1  0
 10 11  1  0
 11 12  2  0
 12 13  1  0
 13 14  1  0
 14 15  1  0
 15 16  2  0
 15 17  1  0
 17 18  1  0
 18 19  2  0
 11 20  1  0
 14 20  2  0
 19 20  1  0
  1 21  1  0
  1 22  1  0
  1 23  1  0
  3 24  1  0
  3 25  1  0
  4 26  1  1
  5 27  1  0
  5 28  1  0
  6 29  1  6
  7 30  1  0
  8 31  1  6
  9 32  1  0
 10 33  1  6
 12 34  1  0
 13 35  1  0
 17 36  1  0
 18 37  1  0
M  CHG  1   5   1
M  END
