7CNQ_G8X_A_602
     RDKit          3D

  9  9  0  0  0  0  0  0  0  0999 V2000
  -11.6809   14.6320   42.9417 O   0  0  0  0  0  0  0  0  0  0  0  0
   -9.0410   13.8791   44.8156 O   0  0  0  0  0  0  0  0  0  0  0  0
  -12.4692   14.6307   45.9652 N   0  0  0  0  0  0  0  0  0  0  0  0
  -12.1040   13.7047   43.8670 C   0  0  2  0  0  0  0  0  0  0  0  0
  -13.5978   13.8543   44.0904 C   0  0  0  0  0  0  0  0  0  0  0  0
  -13.7028   14.0017   45.5899 C   0  0  0  0  0  0  0  0  0  0  0  0
  -11.4949   13.8480   45.2289 C   0  0  1  0  0  0  0  0  0  0  0  0
  -10.1902   14.5251   45.2544 C   0  0  0  0  0  0  0  0  0  0  0  0
  -10.0603   15.7059   45.6704 O   0  0  0  0  0  0  0  0  0  0  0  0
  4  1  1  6
  4  5  1  0
  5  6  1  0
  3  6  1  0
  4  7  1  0
  3  7  1  0
  7  8  1  6
  2  8  1  0
  8  9  2  0
M  END
$$$$
