7XG5_PLP_B_401
     RDKit          3D

 16 16  0  0  0  0  0  0  0  0999 V2000
  -37.4972  -42.8832   25.6541 N   0  0  0  0  0  0  0  0  0  0  0  0
  -38.6086  -42.3174   26.1313 C   0  0  0  0  0  0  0  0  0  0  0  0
  -39.7721  -43.1953   26.4880 C   0  0  0  0  0  0  0  0  0  0  0  0
  -38.6828  -40.9204   26.2905 C   0  0  0  0  0  0  0  0  0  0  0  0
  -39.8221  -40.3715   26.7824 O   0  0  0  0  0  0  0  0  0  0  0  0
  -37.5728  -40.1323   25.9367 C   0  0  0  0  0  0  0  0  0  0  0  0
  -37.6303  -38.6781   26.0825 C   0  0  0  0  0  0  0  0  0  0  0  0
  -38.5822  -38.0665   26.5112 O   0  0  0  0  0  0  0  0  0  0  0  0
  -36.4266  -40.7568   25.4301 C   0  0  0  0  0  0  0  0  0  0  0  0
  -36.4323  -42.1197   25.3073 C   0  0  0  0  0  0  0  0  0  0  0  0
  -35.2195  -39.9454   25.0375 C   0  0  0  0  0  0  0  0  0  0  0  0
  -35.1369  -39.9359   23.5762 O   0  0  0  0  0  0  0  0  0  0  0  0
  -34.5151  -38.6706   22.7785 P   0  0  2  0  0  0  0  0  0  0  0  0
  -34.7101  -37.4551   23.6719 O   0  0  0  0  0  0  0  0  0  0  0  0
  -35.2938  -38.6116   21.5044 O   0  0  0  0  0  0  0  0  0  0  0  0
  -32.9978  -38.9542   22.5915 O   0  0  0  0  0  0  0  0  0  0  0  0
  1  2  2  0
  2  3  1  0
  2  4  1  0
  4  5  1  0
  4  6  2  0
  6  7  1  0
  7  8  2  0
  6  9  1  0
  1 10  1  0
  9 10  2  0
  9 11  1  0
 11 12  1  0
 12 13  1  0
 13 14  2  0
 13 15  1  6
 13 16  1  0
M  END
