1TOW_CRZ_A_501
     RDKit          3D

 19 21  0  0  0  0  0  0  0  0999 V2000
   17.2299    7.5423    1.5461 O   0  0  0  0  0  0  0  0  0  0  0  0
   17.6079    6.5878    2.4734 C   0  0  0  0  0  0  0  0  0  0  0  0
   17.1440    5.4186    2.3778 O   0  0  0  0  0  0  0  0  0  0  0  0
   18.5639    6.9697    3.5735 C   0  0  0  0  0  0  0  0  0  0  0  0
   19.1548    5.7395    4.1909 C   0  0  0  0  0  0  0  0  0  0  0  0
   20.2323    5.0845    3.3603 C   0  0  0  0  0  0  0  0  0  0  0  0
   20.8132    3.9115    3.9841 N   0  0  0  0  0  0  0  0  0  0  0  0
   20.5345    2.6202    3.7286 C   0  0  0  0  0  0  0  0  0  0  0  0
   19.6715    1.9862    2.8609 C   0  0  0  0  0  0  0  0  0  0  0  0
   21.3162    1.8299    4.5470 C   0  0  0  0  0  0  0  0  0  0  0  0
   21.2262    0.4402    4.4878 C   0  0  0  0  0  0  0  0  0  0  0  0
   20.3511   -0.1832    3.6074 C   0  0  0  0  0  0  0  0  0  0  0  0
   19.5722    0.6110    2.7918 C   0  0  0  0  0  0  0  0  0  0  0  0
   22.1027    2.6731    5.3326 C   0  0  0  0  0  0  0  0  0  0  0  0
   21.7669    3.9654    4.9591 C   0  0  0  0  0  0  0  0  0  0  0  0
   22.4088    5.0086    5.5922 C   0  0  0  0  0  0  0  0  0  0  0  0
   23.0542    2.4259    6.3122 C   0  0  0  0  0  0  0  0  0  0  0  0
   23.6901    3.4980    6.9385 C   0  0  0  0  0  0  0  0  0  0  0  0
   23.3612    4.7887    6.5721 C   0  0  0  0  0  0  0  0  0  0  0  0
  1  2  1  0
  2  3  2  0
  4  2  1  6
  5  4  1  1
  5  6  1  0
  6  7  1  1
  7  8  1  0
  8  9  2  0
  8 10  1  0
 10 11  2  0
 11 12  1  0
  9 13  1  0
 12 13  2  0
 10 14  1  0
  7 15  1  0
 14 15  2  0
 15 16  1  0
 14 17  1  0
 17 18  2  0
 16 19  2  0
 18 19  1  0
M  END
$$$$
