7MWU_ZPM_A_2002
     RDKit          3D

  7  7  0  0  0  0  0  0  0  0999 V2000
    7.2362   46.7363   52.3671 C   0  0  0  0  0  0  0  0  0  0  0  0
    6.3951   47.3031   51.2202 C   0  0  0  0  0  0  0  0  0  0  0  0
    6.8410   46.1362   50.3399 C   0  0  2  0  0  0  0  0  0  0  0  0
    7.8684   45.7309   51.3965 C   0  0  0  0  0  0  0  0  0  0  0  0
    7.4831   46.6149   49.0382 C   0  0  0  0  0  0  0  0  0  0  0  0
    8.5220   46.0328   48.6357 O   0  0  0  0  0  0  0  0  0  0  0  0
    6.9798   47.5752   48.3944 O   0  0  0  0  0  0  0  0  0  0  0  0
  1  2  1  0
  2  3  1  0
  3  4  1  0
  1  4  1  0
  3  5  1  6
  5  6  1  0
  5  7  2  0
M  END
