7T3F_EM0_A_201
     RDKit          3D

 24 26  0  0  0  0  0  0  0  0999 V2000
   45.5368   41.1270   71.4798 F   0  0  0  0  0  0  0  0  0  0  0  0
   45.0208   40.3176   72.4363 C   0  0  0  0  0  0  0  0  0  0  0  0
   43.8092   40.6273   73.0270 C   0  0  0  0  0  0  0  0  0  0  0  0
   43.0262   41.8352   72.6539 C   0  0  0  0  0  0  0  0  0  0  0  0
   43.2910   39.7934   74.0034 C   0  0  0  0  0  0  0  0  0  0  0  0
   43.9648   38.6511   74.4015 C   0  0  0  0  0  0  0  0  0  0  0  0
   45.1813   38.3309   73.8153 C   0  0  0  0  0  0  0  0  0  0  0  0
   45.7011   39.1687   72.8350 C   0  0  0  0  0  0  0  0  0  0  0  0
   43.2725   37.6170   75.6460 S   0  0  1  0  0  6  0  0  0  0  0  0
   41.9315   37.1616   75.1516 O   0  0  0  0  0  0  0  0  0  0  0  0
   44.1612   36.4322   75.8157 O   0  0  0  0  0  0  0  0  0  0  0  0
   43.1159   38.5402   77.1018 N   0  0  0  0  0  0  0  0  0  0  0  0
   44.1774   39.3514   77.5300 C   0  0  0  0  0  0  0  0  0  0  0  0
   45.4186   39.2146   76.9434 C   0  0  0  0  0  0  0  0  0  0  0  0
   46.5122   39.9838   77.3177 C   0  0  0  0  0  0  0  0  0  0  0  0
   47.7759   39.7498   76.6257 C   0  0  0  0  0  0  0  0  0  0  0  0
   48.7945   40.6263   77.1345 N   0  0  0  0  0  0  0  0  0  0  0  0
   50.1222   40.5220   76.5491 C   0  0  0  0  0  0  0  0  0  0  0  0
   48.6165   41.5848   78.1591 C   0  0  0  0  0  0  0  0  0  0  0  0
   49.5750   42.3192   78.5474 O   0  0  0  0  0  0  0  0  0  0  0  0
   47.3469   41.7372   78.7716 N   0  0  0  0  0  0  0  0  0  0  0  0
   46.2953   40.9019   78.3159 C   0  0  0  0  0  0  0  0  0  0  0  0
   45.0612   41.0694   78.9307 C   0  0  0  0  0  0  0  0  0  0  0  0
   43.9999   40.2846   78.5290 C   0  0  0  0  0  0  0  0  0  0  0  0
  1  2  1  0
  2  3  2  0
  4  3  1  1
  3  5  1  0
  5  6  2  0
  6  7  1  0
  2  8  1  0
  7  8  2  0
  6  9  1  0
  9 10  2  0
  9 11  2  0
  9 12  1  1
 12 13  1  0
 13 14  2  0
 14 15  1  0
 15 16  1  0
 16 17  1  1
 18 17  1  6
 17 19  1  0
 19 20  2  0
 19 21  1  0
 21 22  1  0
 15 22  2  0
 22 23  1  0
 23 24  2  0
 13 24  1  0
M  END
$$$$
