7JUD_MMA_A_803
     RDKit          3D

 13 13  0  0  0  0  0  0  0  0999 V2000
  -14.8190   -6.9570   10.2820 C   0  0  1  0  0  0  0  0  0  0  0  0
  -13.4200   -6.4120   10.5070 C   0  0  2  0  0  0  0  0  0  0  0  0
  -12.4770   -6.8770    9.4570 C   0  0  2  0  0  0  0  0  0  0  0  0
  -12.4540   -8.3670    9.3540 C   0  0  1  0  0  0  0  0  0  0  0  0
  -13.8570   -8.9000    9.0510 C   0  0  1  0  0  0  0  0  0  0  0  0
  -13.8660  -10.4050    9.0550 C   0  0  0  0  0  0  0  0  0  0  0  0
  -16.6580   -6.7260    8.8550 C   0  0  0  0  0  0  0  0  0  0  0  0
  -15.3250   -6.3670    9.1640 O   0  0  0  0  0  0  0  0  0  0  0  0
  -12.9600   -6.8630   11.7960 O   0  0  0  0  0  0  0  0  0  0  0  0
  -11.1360   -6.4150    9.7820 O   0  0  0  0  0  0  0  0  0  0  0  0
  -11.5250   -8.7110    8.3220 O   0  0  0  0  0  0  0  0  0  0  0  0
  -14.8020   -8.4370   10.0790 O   0  0  0  0  0  0  0  0  0  0  0  0
  -13.5350  -10.8790   10.3380 O   0  0  0  0  0  0  0  0  0  0  0  0
  1  2  1  0
  2  3  1  0
  3  4  1  0
  4  5  1  0
  5  6  1  1
  1  8  1  6
  7  8  1  0
  2  9  1  1
  3 10  1  1
  4 11  1  6
  1 12  1  0
  5 12  1  0
  6 13  1  0
M  END
$$$$
