6ZX3_QRZ_A_501
     RDKit          3D

 24 25  0  0  0  0  0  0  0  0999 V2000
   14.7076   10.4613   37.4178 C   0  0  0  0  0  0  0  0  0  0  0  0
   11.3672   12.0035   36.7888 C   0  0  0  0  0  0  0  0  0  0  0  0
   16.9516    8.2135   42.0716 O   0  0  0  0  0  0  0  0  0  0  0  0
   16.6914    9.2104   43.1714 P   0  0  2  0  0  0  0  0  0  0  0  0
   17.9534    9.9403   43.6096 O   0  0  0  0  0  0  0  0  0  0  0  0
   15.9423    8.6234   44.3394 O   0  0  0  0  0  0  0  0  0  0  0  0
   15.6823   10.3277   42.6452 O   0  0  0  0  0  0  0  0  0  0  0  0
   15.4137   10.4818   41.2646 C   0  0  0  0  0  0  0  0  0  0  0  0
   14.0368   11.1042   41.1352 C   0  0  2  0  0  0  0  0  0  0  0  0
   12.9006   10.1060   41.2365 C   0  0  1  0  0  0  0  0  0  0  0  0
   11.7646   10.6832   41.9208 O   0  0  0  0  0  0  0  0  0  0  0  0
   12.5917    9.7643   39.7984 C   0  0  1  0  0  0  0  0  0  0  0  0
   11.2253    9.4054   39.7128 O   0  0  0  0  0  0  0  0  0  0  0  0
   13.8938   11.7369   39.8613 O   0  0  0  0  0  0  0  0  0  0  0  0
   12.9044   11.0724   39.0613 C   0  0  1  0  0  0  0  0  0  0  0  0
   13.4221   10.9404   37.6795 N   0  0  0  0  0  0  0  0  0  0  0  0
   12.6024   11.2483   36.5746 C   0  0  0  0  0  0  0  0  0  0  0  0
   13.0251   11.0170   35.2729 C   0  0  0  0  0  0  0  0  0  0  0  0
   14.3182   10.5619   35.0929 C   0  0  0  0  0  0  0  0  0  0  0  0
   14.8422   10.4073   33.9534 O   0  0  0  0  0  0  0  0  0  0  0  0
   15.1160   10.3026   36.1543 N   0  0  0  0  0  0  0  0  0  0  0  0
   15.4914   10.2296   38.3557 O   0  0  0  0  0  0  0  0  0  0  0  0
   11.3217   13.5788   37.0502 S   0  0  0  0  0  0  0  0  0  0  0  0
   10.2892   11.2393   36.6292 N   0  0  0  0  0  0  0  0  0  0  0  0
  4  3  1  6
  4  5  2  0
  4  6  1  0
  4  7  1  0
  7  8  1  0
  9  8  1  6
  9 10  1  0
 10 11  1  6
 10 12  1  0
 12 13  1  1
  9 14  1  0
 14 15  1  0
 12 15  1  0
 15 16  1  6
  1 16  1  0
  2 17  1  0
 16 17  1  0
 17 18  2  0
 18 19  1  0
 19 20  2  0
 19 21  1  0
  1 21  1  0
  1 22  2  0
  2 23  2  0
  2 24  1  0
M  END
