7JGW_V9S_A_301
     RDKit          3D

 45 50  0  0  0  0  0  0  0  0999 V2000
   -3.3956    2.8207   19.2349 S   0  0  0  0  0  0  0  0  0  0  0  0
   -5.8957   -0.4190   16.5625 C   0  0  0  0  0  0  0  0  0  0  0  0
   -7.7460   -1.7496   15.8929 C   0  0  0  0  0  0  0  0  0  0  0  0
   -7.8679    0.0994   27.6268 C   0  0  0  0  0  0  0  0  0  0  0  0
  -10.9319   -3.4928   20.6396 O   0  0  0  0  0  0  0  0  0  0  0  0
  -10.5002   -2.8113   21.5509 C   0  0  0  0  0  0  0  0  0  0  0  0
  -10.8994   -2.9219   22.7992 O   0  0  0  0  0  0  0  0  0  0  0  0
   -9.4494   -1.7988   21.2484 C   0  0  0  0  0  0  0  0  0  0  0  0
   -8.9874   -0.9005   22.2094 C   0  0  0  0  0  0  0  0  0  0  0  0
   -9.5105   -0.9262   23.4729 O   0  0  0  0  0  0  0  0  0  0  0  0
   -8.8745   -0.1538   24.4875 C   0  0  0  0  0  0  0  0  0  0  0  0
   -9.5426   -0.4940   25.8479 C   0  0  0  0  0  0  0  0  0  0  0  0
   -8.9953    0.4573   26.8857 C   0  0  0  0  0  0  0  0  0  0  0  0
   -9.5321    1.7384   27.0456 C   0  0  0  0  0  0  0  0  0  0  0  0
   -8.9911    2.6405   27.9579 C   0  0  0  0  0  0  0  0  0  0  0  0
   -7.8822    2.2706   28.7082 C   0  0  0  0  0  0  0  0  0  0  0  0
   -7.3263    1.0144   28.5336 C   0  0  0  0  0  0  0  0  0  0  0  0
   -8.0625    0.0729   21.8018 C   0  0  0  0  0  0  0  0  0  0  0  0
   -7.5890    0.0246   20.4915 C   0  0  0  0  0  0  0  0  0  0  0  0
   -8.9901   -1.8134   19.9742 N   0  0  0  0  0  0  0  0  0  0  0  0
   -8.0410   -0.9210   19.5956 C   0  0  0  0  0  0  0  0  0  0  0  0
   -7.5816   -0.9912   18.1902 C   0  0  0  0  0  0  0  0  0  0  0  0
   -8.2392   -1.7271   17.2099 C   0  0  0  0  0  0  0  0  0  0  0  0
   -6.5409   -1.1191   15.5759 C   0  0  0  0  0  0  0  0  0  0  0  0
   -6.0588   -1.1769   14.1330 C   0  0  0  0  0  0  0  0  0  0  0  0
   -4.9756   -0.1502   13.8450 C   0  0  0  0  0  0  0  0  0  0  0  0
   -3.9347   -0.1543   14.9620 C   0  0  0  0  0  0  0  0  0  0  0  0
   -6.3874   -0.3687   17.8364 C   0  0  0  0  0  0  0  0  0  0  0  0
   -4.6415    0.2771   16.2351 C   0  0  0  0  0  0  0  0  0  0  0  0
   -4.1048    1.0886   17.0680 N   0  0  0  0  0  0  0  0  0  0  0  0
   -3.0195    1.8301   16.7878 N   0  0  0  0  0  0  0  0  0  0  0  0
   -2.5741    2.6182   17.7586 C   0  0  0  0  0  0  0  0  0  0  0  0
   -1.4791    3.3943   17.6535 N   0  0  0  0  0  0  0  0  0  0  0  0
   -2.3085    3.9275   19.8251 C   0  0  0  0  0  0  0  0  0  0  0  0
   -1.3071    4.1017   18.8222 C   0  0  0  0  0  0  0  0  0  0  0  0
   -0.1291    4.9998   19.0153 C   0  0  0  0  0  0  0  0  0  0  0  0
    0.3904    5.0367   20.1202 O   0  0  0  0  0  0  0  0  0  0  0  0
    0.3464    5.6350   17.9288 N   0  0  0  0  0  0  0  0  0  0  0  0
    1.7491    5.5726   17.5431 C   0  0  0  0  0  0  0  0  0  0  0  0
    2.3680    4.1910   17.4369 C   0  0  0  0  0  0  0  0  0  0  0  0
    2.6181    3.4500   18.5680 C   0  0  0  0  0  0  0  0  0  0  0  0
    3.2244    2.1959   18.5065 C   0  0  0  0  0  0  0  0  0  0  0  0
    2.8104    3.7104   16.2168 C   0  0  0  0  0  0  0  0  0  0  0  0
    3.4189    2.4676   16.1150 C   0  0  0  0  0  0  0  0  0  0  0  0
    3.6211    1.7029   17.2696 C   0  0  0  0  0  0  0  0  0  0  0  0
  5  6  1  0
  6  7  2  0
  6  8  1  0
  8  9  2  0
  9 10  1  0
 10 11  1  0
 11 12  1  0
  4 13  2  0
 12 13  1  0
 13 14  1  0
 14 15  2  0
 15 16  1  0
 16 17  2  0
  4 17  1  0
  9 18  1  0
 18 19  2  0
  8 20  1  0
 19 21  1  0
 20 21  2  0
 21 22  1  0
 22 23  1  0
  3 23  2  0
  2 24  2  0
  3 24  1  0
 24 25  1  0
 25 26  1  0
 26 27  1  0
 22 28  2  0
  2 28  1  0
  2 29  1  0
 27 29  1  0
 29 30  2  0
 30 31  1  0
  1 32  1  0
 31 32  1  0
 32 33  2  0
  1 34  1  0
 34 35  2  0
 33 35  1  0
 35 36  1  0
 36 37  2  0
 36 38  1  0
 38 39  1  0
 39 40  1  0
 40 41  2  0
 41 42  1  0
 40 43  1  0
 43 44  2  0
 42 45  2  0
 44 45  1  0
M  END
