7ROR_69X_A_401
     RDKit          3D

 35 38  0  0  0  0  0  0  0  0999 V2000
  -12.1673    6.7263   48.8221 C   0  0  1  0  0  0  0  0  0  0  0  0
  -13.5274    6.0939   49.0086 C   0  0  0  0  0  0  0  0  0  0  0  0
  -13.7761    5.1479   47.9073 C   0  0  0  0  0  0  0  0  0  0  0  0
  -13.7907    5.5822   46.6097 C   0  0  0  0  0  0  0  0  0  0  0  0
  -14.0209    4.7062   45.5906 C   0  0  0  0  0  0  0  0  0  0  0  0
  -14.2384    3.3907   45.8563 C   0  0  0  0  0  0  0  0  0  0  0  0
  -14.2329    2.9025   47.1617 C   0  0  0  0  0  0  0  0  0  0  0  0
  -13.9976    3.8065   48.1824 C   0  0  0  0  0  0  0  0  0  0  0  0
  -11.9587    7.8466   49.7969 C   0  0  0  0  0  0  0  0  0  0  0  0
  -14.3208   11.0824   49.1102 C   0  0  0  0  0  0  0  0  0  0  0  0
  -14.1193   11.9463   47.8829 C   0  0  2  0  0  0  0  0  0  0  0  0
  -12.5104   12.1408   46.3449 C   0  0  2  0  0  0  0  0  0  0  0  0
  -13.3214   10.9059   45.9411 C   0  0  1  0  0  0  0  0  0  0  0  0
  -14.6058   11.1908   46.6917 C   0  0  2  0  0  0  0  0  0  0  0  0
  -10.3520   10.9427   46.5646 C   0  0  0  0  0  0  0  0  0  0  0  0
   -9.0668   12.2593   45.3687 C   0  0  0  0  0  0  0  0  0  0  0  0
   -8.0186   12.8629   44.7007 C   0  0  0  0  0  0  0  0  0  0  0  0
   -9.5315   14.5317   44.0050 C   0  0  0  0  0  0  0  0  0  0  0  0
  -10.3317   12.7910   45.3514 C   0  0  0  0  0  0  0  0  0  0  0  0
  -11.1834    5.6660   49.0251 N   0  0  0  0  0  0  0  0  0  0  0  0
  -11.1011   11.9580   46.0966 N   0  0  0  0  0  0  0  0  0  0  0  0
   -9.1055   11.1507   46.1033 N   0  0  0  0  0  0  0  0  0  0  0  0
   -6.6975   12.3351   44.7008 N   0  0  0  0  0  0  0  0  0  0  0  0
   -8.2922   14.0086   44.0234 N   0  0  0  0  0  0  0  0  0  0  0  0
  -10.5585   13.9313   44.6654 N   0  0  0  0  0  0  0  0  0  0  0  0
  -14.4725    2.5043   44.8085 O   0  0  0  0  0  0  0  0  0  0  0  0
  -11.3562    7.6812   50.8910 O   0  0  0  0  0  0  0  0  0  0  0  0
  -12.4563    9.0985   49.4578 O   0  0  0  0  0  0  0  0  0  0  0  0
  -10.8321   11.2444   50.2995 O   0  0  0  0  0  0  0  0  0  0  0  0
  -12.4401    9.9528   51.9370 O   0  0  0  0  0  0  0  0  0  0  0  0
  -13.5869   11.5425   50.2111 O   0  0  0  0  0  0  0  0  0  0  0  0
  -12.7889   12.2546   47.7008 O   0  0  0  0  0  0  0  0  0  0  0  0
  -13.5161   10.8466   44.5676 O   0  0  0  0  0  0  0  0  0  0  0  0
  -15.3827   12.0106   45.8423 O   0  0  0  0  0  0  0  0  0  0  0  0
  -12.3151   10.4632   50.5058 P   0  0  2  0  0  0  0  0  0  0  0  0
  1  2  1  0
  2  3  1  0
  3  4  2  0
  4  5  1  0
  5  6  2  0
  6  7  1  0
  7  8  2  0
  3  8  1  0
  1  9  1  0
 11 10  1  1
 12 13  1  0
 11 14  1  0
 13 14  1  0
 16 17  2  0
 16 19  1  0
  1 20  1  1
 12 21  1  1
 15 21  1  0
 19 21  1  0
 15 22  2  0
 16 22  1  0
 17 23  1  0
 18 24  2  0
 17 24  1  0
 19 25  2  0
 18 25  1  0
  6 26  1  0
  9 27  2  0
  9 28  1  0
 10 31  1  0
 11 32  1  0
 12 32  1  0
 13 33  1  6
 14 34  1  6
 28 35  1  0
 30 35  2  0
 35 29  1  1
 31 35  1  0
M  END
$$$$
