7S9H_7PP_A_301
     RDKit          3D

 53 55  0  0  0  0  0  0  0  0999 V2000
   34.5673    8.8802  -27.7181 Cl  0  0  0  0  0  0  0  0  0  0  0  0
   33.8029    9.7865  -26.4251 C   0  0  0  0  0  0  0  0  0  0  0  0
   34.3970   10.9199  -25.9501 N   0  0  0  0  0  0  0  0  0  0  0  0
   33.8353   11.6575  -24.9402 C   0  0  0  0  0  0  0  0  0  0  0  0
   34.4871   12.8364  -24.4744 N   0  0  0  0  0  0  0  0  0  0  0  0
   32.6520   11.2684  -24.3795 N   0  0  0  0  0  0  0  0  0  0  0  0
   32.0521   10.1456  -24.8450 C   0  0  0  0  0  0  0  0  0  0  0  0
   32.5947    9.3966  -25.8488 C   0  0  0  0  0  0  0  0  0  0  0  0
   30.8867    9.6246  -24.4153 N   0  0  0  0  0  0  0  0  0  0  0  0
   30.0285   10.1268  -23.3420 C   0  0  1  0  0  0  0  0  0  0  0  0
   30.0336   11.6349  -23.3099 C   0  0  0  0  0  0  0  0  0  0  0  0
   28.8604   12.4082  -23.4916 C   0  0  0  0  0  0  0  0  0  0  0  0
   27.5222   11.7548  -23.7438 C   0  0  2  0  0  0  0  0  0  0  0  0
   28.9738   13.8156  -23.5030 C   0  0  0  0  0  0  0  0  0  0  0  0
   27.8359   14.6051  -23.6972 O   0  0  0  0  0  0  0  0  0  0  0  0
   27.9034   16.0260  -23.6864 C   0  0  2  0  0  0  0  0  0  0  0  0
   30.2348   14.4219  -23.3427 C   0  0  0  0  0  0  0  0  0  0  0  0
   30.3987   15.9162  -23.3592 C   0  0  1  0  0  0  0  0  0  0  0  0
   31.3523   13.6098  -23.1290 C   0  0  0  0  0  0  0  0  0  0  0  0
   31.2273   12.2603  -23.1277 N   0  0  0  0  0  0  0  0  0  0  0  0
   30.6867    8.5046  -25.1513 C   0  0  0  0  0  0  0  0  0  0  0  0
   31.7285    8.3384  -26.0580 C   0  0  0  0  0  0  0  0  0  0  0  0
   31.8563    7.2672  -27.0076 C   0  0  0  0  0  0  0  0  0  0  0  0
   31.9612    6.3668  -27.8018 C   0  0  0  0  0  0  0  0  0  0  0  0
   32.0887    5.2657  -28.7672 C   0  0  2  0  0  0  0  0  0  0  0  0
   31.8133    3.8848  -28.1174 C   0  0  1  0  0  0  0  0  0  0  0  0
   30.7191    4.0054  -27.0412 C   0  0  2  0  0  0  0  0  0  0  0  0
   31.3406    2.8925  -29.1972 C   0  0  1  0  0  0  0  0  0  0  0  0
   32.9806    3.3881  -27.5047 O   0  0  0  0  0  0  0  0  0  0  0  0
   33.9852   13.5055  -23.8494 H   0  0  0  0  0  0  0  0  0  0  0  0
   35.4712   13.0427  -24.7560 H   0  0  0  0  0  0  0  0  0  0  0  0
   28.9895    9.7537  -23.4636 H   0  0  0  0  0  0  0  0  0  0  0  0
   30.3977    9.7259  -22.3731 H   0  0  0  0  0  0  0  0  0  0  0  0
   27.1203   11.2999  -22.8163 H   0  0  0  0  0  0  0  0  0  0  0  0
   27.6345   10.9715  -24.5217 H   0  0  0  0  0  0  0  0  0  0  0  0
   26.7615   12.4830  -24.0911 H   0  0  0  0  0  0  0  0  0  0  0  0
   26.8837   16.4377  -23.5421 H   0  0  0  0  0  0  0  0  0  0  0  0
   28.3093   16.4031  -24.6473 H   0  0  0  0  0  0  0  0  0  0  0  0
   28.5515   16.3690  -22.8525 H   0  0  0  0  0  0  0  0  0  0  0  0
   29.9524   16.3485  -22.4397 H   0  0  0  0  0  0  0  0  0  0  0  0
   31.4741   16.1924  -23.3976 H   0  0  0  0  0  0  0  0  0  0  0  0
   29.9079   16.3599  -24.2509 H   0  0  0  0  0  0  0  0  0  0  0  0
   32.3305   14.0486  -22.9796 H   0  0  0  0  0  0  0  0  0  0  0  0
   29.8340    7.8463  -25.0415 H   0  0  0  0  0  0  0  0  0  0  0  0
   33.1196    5.2923  -29.1814 H   0  0  0  0  0  0  0  0  0  0  0  0
   31.3821    5.4445  -29.6062 H   0  0  0  0  0  0  0  0  0  0  0  0
   29.7218    3.7543  -27.4628 H   0  0  0  0  0  0  0  0  0  0  0  0
   30.6819    5.0378  -26.6328 H   0  0  0  0  0  0  0  0  0  0  0  0
   30.9303    3.3147  -26.1967 H   0  0  0  0  0  0  0  0  0  0  0  0
   32.0174    2.0121  -29.2449 H   0  0  0  0  0  0  0  0  0  0  0  0
   30.3131    2.5327  -28.9742 H   0  0  0  0  0  0  0  0  0  0  0  0
   31.3252    3.3838  -30.1938 H   0  0  0  0  0  0  0  0  0  0  0  0
   33.6778    3.2955  -28.2063 H   0  0  0  0  0  0  0  0  0  0  0  0
  1  2  1  0
  2  3  2  0
  3  4  1  0
  4  5  1  0
  4  6  2  0
  6  7  1  0
  2  8  1  0
  7  8  2  0
  7  9  1  0
  9 10  1  0
 10 11  1  0
 11 12  2  0
 12 13  1  0
 12 14  1  0
 14 15  1  0
 15 16  1  0
 14 17  2  0
 17 18  1  0
 17 19  1  0
 11 20  1  0
 19 20  2  0
  9 21  1  0
  8 22  1  0
 21 22  2  0
 22 23  1  0
 23 24  3  0
 24 25  1  0
 25 26  1  0
 26 27  1  0
 26 28  1  0
 26 29  1  1
  5 30  1  0
  5 31  1  0
 10 32  1  6
 10 33  1  0
 13 34  1  1
 13 35  1  0
 13 36  1  0
 16 37  1  1
 16 38  1  0
 16 39  1  0
 18 40  1  1
 18 41  1  0
 18 42  1  0
 19 43  1  0
 21 44  1  0
 25 45  1  6
 25 46  1  0
 27 47  1  6
 27 48  1  0
 27 49  1  0
 28 50  1  6
 28 51  1  0
 28 52  1  0
 29 53  1  0
M  END
