7E4L_MDN_A_301
     RDKit          3D

  9  8  0  0  0  0  0  0  0  0999 V2000
  -19.6068   -4.6512  -16.0217 O   0  0  0  0  0  0  0  0  0  0  0  0
  -18.7157   -3.5098  -16.4554 P   0  0  1  0  0  0  0  0  0  0  0  0
  -19.4768   -2.4679  -17.2863 O   0  0  0  0  0  0  0  0  0  0  0  0
  -17.9903   -2.8690  -15.2964 O   0  0  0  0  0  0  0  0  0  0  0  0
  -17.4994   -4.1462  -17.6397 C   0  0  0  0  0  0  0  0  0  0  0  0
  -16.2263   -5.3204  -17.0756 P   0  0  1  0  0  0  0  0  0  0  0  0
  -16.5053   -6.6384  -17.7165 O   0  0  0  0  0  0  0  0  0  0  0  0
  -14.9488   -4.7152  -17.5878 O   0  0  0  0  0  0  0  0  0  0  0  0
  -16.2336   -5.4034  -15.5888 O   0  0  0  0  0  0  0  0  0  0  0  0
  2  1  1  1
  2  3  2  0
  2  4  1  0
  2  5  1  0
  5  6  1  0
  6  7  2  0
  6  8  1  6
  6  9  1  0
M  END
