7L03_F9F_A_301
     RDKit          3D

 33 33  0  0  0  0  0  0  0  0999 V2000
  -37.3485   -6.3797   13.4638 C   0  0  0  0  0  0  0  0  0  0  0  0
  -37.2690   -5.2299   12.6536 C   0  0  0  0  0  0  0  0  0  0  0  0
  -37.8939   -4.0437   13.0505 C   0  0  0  0  0  0  0  0  0  0  0  0
  -38.5999   -3.9867   14.2582 C   0  0  0  0  0  0  0  0  0  0  0  0
  -38.6860   -5.1301   15.0629 C   0  0  0  0  0  0  0  0  0  0  0  0
  -38.0618   -6.3165   14.6671 C   0  0  0  0  0  0  0  0  0  0  0  0
  -36.7415   -7.5974   13.1162 O   0  0  0  0  0  0  0  0  0  0  0  0
  -36.8203   -8.2214   11.8364 C   0  0  1  0  0  0  0  0  0  0  0  0
  -35.9226   -7.6336   10.9632 F   0  0  0  0  0  0  0  0  0  0  0  0
  -36.5014   -9.5588   11.9696 F   0  0  0  0  0  0  0  0  0  0  0  0
  -38.1049   -8.1173   11.3336 F   0  0  0  0  0  0  0  0  0  0  0  0
  -39.4032   -2.4923   14.7356 S   0  0  2  0  0  6  0  0  0  0  0  0
  -40.7286   -2.1483   13.6660 N   0  0  0  0  0  0  0  0  0  0  0  0
  -41.9927   -2.2187   14.4036 C   0  0  1  0  0  0  0  0  0  0  0  0
  -42.9993   -1.2302   13.8211 C   0  0  1  0  0  0  0  0  0  0  0  0
  -43.4716   -1.7184   12.5872 O   0  0  0  0  0  0  0  0  0  0  0  0
  -44.4858   -0.5358   11.8935 P   0  0  1  0  0  5  0  0  0  0  0  0
  -45.7590   -0.1646   12.9466 O   0  0  0  0  0  0  0  0  0  0  0  0
  -43.6916    0.7168   11.5959 O   0  0  0  0  0  0  0  0  0  0  0  0
  -45.1219   -1.1400   10.4472 O   0  0  0  0  0  0  0  0  0  0  0  0
  -38.4136   -1.3629   14.6752 O   0  0  0  0  0  0  0  0  0  0  0  0
  -39.9082   -2.6054   16.1474 O   0  0  0  0  0  0  0  0  0  0  0  0
  -36.7311   -5.2394   11.7164 H   0  0  0  0  0  0  0  0  0  0  0  0
  -37.8302   -3.1701   12.4140 H   0  0  0  0  0  0  0  0  0  0  0  0
  -39.2394   -5.1076   15.9927 H   0  0  0  0  0  0  0  0  0  0  0  0
  -38.1347   -7.1935   15.2977 H   0  0  0  0  0  0  0  0  0  0  0  0
  -40.7324   -2.9005   12.9387 H   0  0  0  0  0  0  0  0  0  0  0  0
  -42.4198   -3.2446   14.3419 H   0  0  0  0  0  0  0  0  0  0  0  0
  -41.8286   -1.9653   15.4742 H   0  0  0  0  0  0  0  0  0  0  0  0
  -43.8331   -1.1072   14.5490 H   0  0  0  0  0  0  0  0  0  0  0  0
  -42.4797   -0.2545   13.6864 H   0  0  0  0  0  0  0  0  0  0  0  0
  -46.5561   -0.0913   12.3634 H   0  0  0  0  0  0  0  0  0  0  0  0
  -45.8243   -0.4904   10.1914 H   0  0  0  0  0  0  0  0  0  0  0  0
  1  2  2  0
  2  3  1  0
  3  4  2  0
  4  5  1  0
  1  6  1  0
  5  6  2  0
  1  7  1  0
  7  8  1  0
  8  9  1  6
  8 10  1  0
  8 11  1  0
  4 12  1  0
 12 13  1  6
 13 14  1  0
 14 15  1  0
 15 16  1  0
 17 16  1  1
 17 18  1  0
 17 19  2  0
 17 20  1  0
 12 21  2  0
 12 22  2  0
  2 23  1  0
  3 24  1  0
  5 25  1  0
  6 26  1  0
 13 27  1  0
 14 28  1  1
 14 29  1  0
 15 30  1  1
 15 31  1  0
 18 32  1  0
 20 33  1  0
M  END
