1XM6_5RM_A_1003
     RDKit          3D

 19 20  0  0  0  0  0  0  0  0999 V2000
   50.7850    2.2010  -10.0540 O   0  0  0  0  0  0  0  0  0  0  0  0
   49.7650    2.4050   -9.3980 C   0  0  0  0  0  0  0  0  0  0  0  0
   48.9710    1.2920   -8.9670 O   0  0  0  0  0  0  0  0  0  0  0  0
   49.5030    3.4380   -8.5800 N   0  0  0  0  0  0  0  0  0  0  0  0
   48.4580    3.1390   -7.6190 C   0  0  0  0  0  0  0  0  0  0  0  0
   47.9970    1.7310   -8.0280 C   0  0  2  0  0  0  0  0  0  0  0  0
   48.0490    0.7240   -6.8730 C   0  0  0  0  0  0  0  0  0  0  0  0
   46.6100    1.7270   -8.6360 C   0  0  0  0  0  0  0  0  0  0  0  0
   45.5100    2.1740   -7.8950 C   0  0  0  0  0  0  0  0  0  0  0  0
   44.2280    2.1600   -8.4410 C   0  0  0  0  0  0  0  0  0  0  0  0
   44.0260    1.6590   -9.7300 C   0  0  0  0  0  0  0  0  0  0  0  0
   42.7850    1.6190  -10.3080 O   0  0  0  0  0  0  0  0  0  0  0  0
   41.5840    2.1170   -9.7040 C   0  0  0  0  0  0  0  0  0  0  0  0
   45.1160    1.2070  -10.4870 C   0  0  0  0  0  0  0  0  0  0  0  0
   46.3930    1.2410   -9.9260 C   0  0  0  0  0  0  0  0  0  0  0  0
   44.8880    0.7470  -11.7810 O   0  0  0  0  0  0  0  0  0  0  0  0
   45.9050    0.1950  -12.6180 C   0  0  0  0  0  0  0  0  0  0  0  0
   45.3630    0.0630  -14.0400 C   0  0  0  0  0  0  0  0  0  0  0  0
   45.1150    1.4450  -14.5960 C   0  0  0  0  0  0  0  0  0  0  0  0
  1  2  2  0
  2  3  1  0
  2  4  1  0
  4  5  1  0
  3  6  1  0
  5  6  1  0
  6  7  1  1
  6  8  1  0
  8  9  2  0
  9 10  1  0
 10 11  2  0
 11 12  1  0
 12 13  1  0
 11 14  1  0
  8 15  1  0
 14 15  2  0
 14 16  1  0
 16 17  1  0
 17 18  1  0
 18 19  1  0
M  END
$$$$
1XM6_5RM_B_1003
     RDKit          3D

 19 20  0  0  0  0  0  0  0  0999 V2000
   82.7330    1.3620   12.8410 O   0  0  0  0  0  0  0  0  0  0  0  0
   83.7560    1.6290   12.2390 C   0  0  0  0  0  0  0  0  0  0  0  0
   84.5620    0.5700   11.7580 O   0  0  0  0  0  0  0  0  0  0  0  0
   84.0200    2.7050   11.4960 N   0  0  0  0  0  0  0  0  0  0  0  0
   85.0370    2.4830   10.4780 C   0  0  0  0  0  0  0  0  0  0  0  0
   85.5340    1.0660   10.8060 C   0  0  2  0  0  0  0  0  0  0  0  0
   85.5000    0.1260    9.6050 C   0  0  0  0  0  0  0  0  0  0  0  0
   86.9240    1.0260   11.3930 C   0  0  0  0  0  0  0  0  0  0  0  0
   88.0300    1.4760   10.6730 C   0  0  0  0  0  0  0  0  0  0  0  0
   89.3050    1.3960   11.2250 C   0  0  0  0  0  0  0  0  0  0  0  0
   89.4990    0.8660   12.5000 C   0  0  0  0  0  0  0  0  0  0  0  0
   90.7420    0.7760   13.0560 O   0  0  0  0  0  0  0  0  0  0  0  0
   91.8860    1.4140   12.4860 C   0  0  0  0  0  0  0  0  0  0  0  0
   88.4150    0.4050   13.2400 C   0  0  0  0  0  0  0  0  0  0  0  0
   87.1340    0.4760   12.6690 C   0  0  0  0  0  0  0  0  0  0  0  0
   88.6110   -0.1230   14.5120 O   0  0  0  0  0  0  0  0  0  0  0  0
   87.4900   -0.7640   15.1600 C   0  0  0  0  0  0  0  0  0  0  0  0
   87.8770   -1.2100   16.5620 C   0  0  0  0  0  0  0  0  0  0  0  0
   88.2790    0.0290   17.3100 C   0  0  0  0  0  0  0  0  0  0  0  0
  1  2  2  0
  2  3  1  0
  2  4  1  0
  4  5  1  0
  3  6  1  0
  5  6  1  0
  6  7  1  6
  6  8  1  0
  8  9  2  0
  9 10  1  0
 10 11  2  0
 11 12  1  0
 12 13  1  0
 11 14  1  0
  8 15  1  0
 14 15  2  0
 14 16  1  0
 16 17  1  0
 17 18  1  0
 18 19  1  0
M  END
$$$$
