6X8D_ARA_A_207
     RDKit          3D

 10 10  0  0  0  0  0  0  0  0999 V2000
   22.8220    0.4470   70.0520 C   0  0  2  0  0  0  0  0  0  0  0  0
   23.5550   -0.2690   71.1570 C   0  0  1  0  0  0  0  0  0  0  0  0
   23.4920   -1.7370   71.0080 C   0  0  2  0  0  0  0  0  0  0  0  0
   22.0600   -2.1820   70.8980 C   0  0  2  0  0  0  0  0  0  0  0  0
   21.3220   -1.3960   69.8150 C   0  0  0  0  0  0  0  0  0  0  0  0
   22.8130    1.7810   70.2990 O   0  0  0  0  0  0  0  0  0  0  0  0
   24.8930    0.2100   71.2070 O   0  0  0  0  0  0  0  0  0  0  0  0
   24.1660   -2.3910   72.1380 O   0  0  0  0  0  0  0  0  0  0  0  0
   21.4160   -2.1020   72.1700 O   0  0  0  0  0  0  0  0  0  0  0  0
   21.4200    0.0230   70.0490 O   0  0  0  0  0  0  0  0  0  0  0  0
  1  2  1  0
  2  3  1  0
  3  4  1  0
  4  5  1  0
  1  6  1  1
  2  7  1  6
  3  8  1  1
  4  9  1  1
  1 10  1  0
  5 10  1  0
M  END
$$$$
