8C7Y_TXV_A_819
     RDKit          3D

 51 54  0  0  0  0  0  0  0  0999 V2000
    1.7720  110.8441   18.9504 N   0  0  0  0  0  0  0  0  0  0  0  0
   -1.0643  109.8479   20.6190 C   0  0  0  0  0  0  0  0  0  0  0  0
   -0.3873  111.0258   20.2700 C   0  0  0  0  0  0  0  0  0  0  0  0
    4.4761  108.6198   13.0198 N   0  0  0  0  0  0  0  0  0  0  0  0
   -1.1335  112.1889   20.0063 C   0  0  0  0  0  0  0  0  0  0  0  0
    6.8491  108.7632   16.5430 O   0  0  0  0  0  0  0  0  0  0  0  0
   -3.3167  113.4787   19.7434 C   0  0  2  0  0  0  0  0  0  0  0  0
   -3.1940  110.9791   20.4018 C   0  0  0  0  0  0  0  0  0  0  0  0
   -2.4568  109.8262   20.6770 C   0  0  0  0  0  0  0  0  0  0  0  0
    3.2867  110.5862   12.3187 N   0  0  0  0  0  0  0  0  0  0  0  0
   -2.5449  112.1923   20.0819 C   0  0  0  0  0  0  0  0  0  0  0  0
   -2.9874  113.9000   18.3648 C   0  0  0  0  0  0  0  0  0  0  0  0
   -2.9769  114.6645   20.6718 C   0  0  1  0  0  0  0  0  0  0  0  0
    7.3395  110.7914   18.2848 F   0  0  0  0  0  0  0  0  0  0  0  0
    5.9921  110.7733   18.4486 C   0  0  0  0  0  0  0  0  0  0  0  0
    5.4288  111.4721   19.5180 C   0  0  0  0  0  0  0  0  0  0  0  0
    4.0446  111.4964   19.6930 C   0  0  0  0  0  0  0  0  0  0  0  0
    5.1672  110.0961   17.5337 C   0  0  0  0  0  0  0  0  0  0  0  0
    3.7723  110.0935   17.7338 C   0  0  0  0  0  0  0  0  0  0  0  0
    2.9660  109.3949   16.8924 F   0  0  0  0  0  0  0  0  0  0  0  0
    3.2037  110.7952   18.8113 C   0  0  0  0  0  0  0  0  0  0  0  0
    1.0940  111.0438   20.2011 C   0  0  0  0  0  0  0  0  0  0  0  0
    1.7659  111.1961   21.2582 O   0  0  0  0  0  0  0  0  0  0  0  0
   -2.7304  114.2291   17.2853 N   0  0  0  0  0  0  0  0  0  0  0  0
   -4.8280  113.1997   19.8279 C   0  0  1  0  0  0  0  0  0  0  0  0
    5.7661  109.3875   16.3817 C   0  0  0  0  0  0  0  0  0  0  0  0
    5.1274  109.3724   15.0490 C   0  0  0  0  0  0  0  0  0  0  0  0
    4.3956  110.3700   14.4213 C   0  0  0  0  0  0  0  0  0  0  0  0
    4.0633  111.6757   14.7841 C   0  0  0  0  0  0  0  0  0  0  0  0
    3.2964  112.4284   13.8776 C   0  0  0  0  0  0  0  0  0  0  0  0
    2.8219  114.0682   14.2795 Cl  0  0  0  0  0  0  0  0  0  0  0  0
    2.9132  111.8603   12.6417 C   0  0  0  0  0  0  0  0  0  0  0  0
    4.0173  109.8667   13.2064 C   0  0  0  0  0  0  0  0  0  0  0  0
    5.1646  108.3126   14.1427 C   0  0  0  0  0  0  0  0  0  0  0  0
    1.1870  110.6690   18.1024 H   0  0  0  0  0  0  0  0  0  0  0  0
   -0.5179  108.9374   20.8317 H   0  0  0  0  0  0  0  0  0  0  0  0
    4.3384  108.0142   12.1806 H   0  0  0  0  0  0  0  0  0  0  0  0
   -0.6176  113.1069   19.7561 H   0  0  0  0  0  0  0  0  0  0  0  0
   -4.2701  110.9038   20.4487 H   0  0  0  0  0  0  0  0  0  0  0  0
   -2.9696  108.9076   20.9321 H   0  0  0  0  0  0  0  0  0  0  0  0
   -2.2607  114.3585   21.4644 H   0  0  0  0  0  0  0  0  0  0  0  0
   -2.5405  115.5067   20.0912 H   0  0  0  0  0  0  0  0  0  0  0  0
   -3.8911  115.0381   21.1839 H   0  0  0  0  0  0  0  0  0  0  0  0
    6.0669  112.0139   20.2045 H   0  0  0  0  0  0  0  0  0  0  0  0
    3.6339  112.0827   20.5039 H   0  0  0  0  0  0  0  0  0  0  0  0
   -5.3997  114.1512   19.7688 H   0  0  0  0  0  0  0  0  0  0  0  0
   -5.1557  112.5422   18.9929 H   0  0  0  0  0  0  0  0  0  0  0  0
   -5.0895  112.6963   20.7840 H   0  0  0  0  0  0  0  0  0  0  0  0
    4.3880  112.1081   15.7198 H   0  0  0  0  0  0  0  0  0  0  0  0
    2.3264  112.4371   11.9393 H   0  0  0  0  0  0  0  0  0  0  0  0
    5.6617  107.3644   14.3021 H   0  0  0  0  0  0  0  0  0  0  0  0
  2  3  2  0
  3  5  1  0
  2  9  1  0
  8  9  2  0
  5 11  2  0
  7 11  1  0
  8 11  1  0
  7 12  1  6
  7 13  1  0
 14 15  1  0
 15 16  2  0
 16 17  1  0
 15 18  1  0
 18 19  2  0
 19 20  1  0
 19 21  1  0
  1 21  1  0
 17 21  2  0
  1 22  1  0
  3 22  1  0
 22 23  2  0
 12 24  3  0
  7 25  1  0
  6 26  2  0
 18 26  1  0
 26 27  1  0
 27 28  1  0
 28 29  2  0
 29 30  1  0
 30 31  1  0
 30 32  2  0
 10 32  1  0
 10 33  2  0
 28 33  1  0
  4 33  1  0
  4 34  1  0
 27 34  2  0
  1 35  1  0
  2 36  1  0
  4 37  1  0
  5 38  1  0
  8 39  1  0
  9 40  1  0
 13 41  1  1
 13 42  1  0
 13 43  1  0
 16 44  1  0
 17 45  1  0
 25 46  1  6
 25 47  1  0
 25 48  1  0
 29 49  1  0
 32 50  1  0
 34 51  1  0
M  END
