8CI0_8EL_CCC_1002
     RDKit          3D

 26 27  0  0  0  0  0  0  0  0999 V2000
  -17.5525   73.2320   46.1839 C   0  0  0  0  0  0  0  0  0  0  0  0
  -17.2470   74.1329   45.1762 C   0  0  0  0  0  0  0  0  0  0  0  0
  -17.8631   73.8685   43.9465 C   0  0  0  0  0  0  0  0  0  0  0  0
  -18.6820   72.8238   43.7665 N   0  0  0  0  0  0  0  0  0  0  0  0
  -18.3893   72.1782   45.9698 N   0  0  0  0  0  0  0  0  0  0  0  0
  -18.9496   71.9716   44.7794 C   0  0  0  0  0  0  0  0  0  0  0  0
  -14.7125   77.5811   46.4432 C   0  0  0  0  0  0  0  0  0  0  0  0
  -19.8707   70.8381   44.4821 C   0  0  0  0  0  0  0  0  0  0  0  0
  -17.6213   80.4586   48.2972 C   0  0  0  0  0  0  0  0  0  0  0  0
  -16.4378   79.7467   47.6558 C   0  0  0  0  0  0  0  0  0  0  0  0
  -18.3832   76.5089   46.1510 C   0  0  0  0  0  0  0  0  0  0  0  0
  -16.3386   75.2707   45.3218 C   0  0  0  0  0  0  0  0  0  0  0  0
  -16.2321   77.4966   46.4886 C   0  0  0  0  0  0  0  0  0  0  0  0
  -16.9134   78.4822   47.0336 C   0  0  0  0  0  0  0  0  0  0  0  0
  -17.0278   73.3862   47.4740 N   0  0  0  0  0  0  0  0  0  0  0  0
  -16.9722   76.4366   45.9936 N   0  0  0  0  0  0  0  0  0  0  0  0
  -21.7893   82.2058   50.3927 O   0  0  0  0  0  0  0  0  0  0  0  0
  -18.9469   82.8455   49.6461 O   0  0  0  0  0  0  0  0  0  0  0  0
  -22.5656   79.7300   50.5642 O   0  0  0  0  0  0  0  0  0  0  0  0
  -20.9332   80.9150   52.4797 O   0  0  0  0  0  0  0  0  0  0  0  0
  -18.5819   81.6897   51.9347 O   0  0  0  0  0  0  0  0  0  0  0  0
  -17.2951   80.7824   49.6110 O   0  0  0  0  0  0  0  0  0  0  0  0
  -19.9669   80.4175   49.9426 O   0  0  0  0  0  0  0  0  0  0  0  0
  -21.3189   80.8460   50.8218 P   0  0  2  0  0  0  0  0  0  0  0  0
  -18.7117   81.4872   50.2705 P   0  0  2  0  0  0  0  0  0  0  0  0
  -18.6812   78.1126   46.9275 S   0  0  0  0  0  0  0  0  0  0  0  0
  1  2  2  0
  2  3  1  0
  3  4  2  0
  1  5  1  0
  5  6  2  0
  4  6  1  0
  6  8  1  0
  9 10  1  0
  2 12  1  0
  7 13  1  0
 10 14  1  0
 13 14  2  0
  1 15  1  0
 11 16  1  0
 12 16  1  0
 13 16  1  0
  9 22  1  0
 17 24  2  0
 24 20  1  1
 23 24  1  0
 19 24  1  0
 18 25  2  0
 23 25  1  0
 25 21  1  1
 22 25  1  0
 11 26  1  0
 14 26  1  0
M  END
$$$$
