7N4W_P4V_A_203
     RDKit          3D

 26 29  0  0  0  0  0  0  0  0999 V2000
   -7.2697  -12.2017   13.3925 C   0  0  0  0  0  0  0  0  0  0  0  0
   -6.6507  -13.7074   11.6014 C   0  0  0  0  0  0  0  0  0  0  0  0
   -8.0647  -13.0625   15.4606 O   0  0  0  0  0  0  0  0  0  0  0  0
   -5.0475   -8.2308    7.0743 C   0  0  0  0  0  0  0  0  0  0  0  0
   -5.3362   -7.3776    8.1493 O   0  0  0  0  0  0  0  0  0  0  0  0
   -6.2622   -7.6149    9.1408 C   0  0  0  0  0  0  0  0  0  0  0  0
   -6.3877   -8.8195    9.7997 C   0  0  0  0  0  0  0  0  0  0  0  0
   -7.1057   -6.5716    9.4806 C   0  0  0  0  0  0  0  0  0  0  0  0
   -6.9987   -5.3535    8.8334 O   0  0  0  0  0  0  0  0  0  0  0  0
   -7.5326   -4.2016    9.4188 C   0  0  0  0  0  0  0  0  0  0  0  0
   -8.0788   -6.7045   10.4704 C   0  0  0  0  0  0  0  0  0  0  0  0
   -8.1868   -7.9180   11.1165 C   0  0  0  0  0  0  0  0  0  0  0  0
   -9.2155   -8.0698   12.1679 C   0  0  0  0  0  0  0  0  0  0  0  0
   -9.0305   -9.2652   13.0386 C   0  0  0  0  0  0  0  0  0  0  0  0
   -7.7264   -9.8563   12.9049 N   0  0  0  0  0  0  0  0  0  0  0  0
   -7.4120  -10.8180   13.8904 C   0  0  0  0  0  0  0  0  0  0  0  0
   -7.5381  -10.2351   11.5329 C   0  0  1  0  0  0  0  0  0  0  0  0
   -7.3451   -8.9593   10.7776 C   0  0  0  0  0  0  0  0  0  0  0  0
   -6.4582  -11.2355   11.2885 C   0  0  0  0  0  0  0  0  0  0  0  0
   -6.7968  -12.4349   12.1003 C   0  0  0  0  0  0  0  0  0  0  0  0
   -6.9797  -14.8030   12.3959 C   0  0  0  0  0  0  0  0  0  0  0  0
   -7.4501  -14.6060   13.6782 C   0  0  0  0  0  0  0  0  0  0  0  0
   -7.7859  -15.6992   14.4914 O   0  0  0  0  0  0  0  0  0  0  0  0
   -6.6797  -16.5379   14.8475 C   0  0  0  0  0  0  0  0  0  0  0  0
   -7.5895  -13.3102   14.1610 C   0  0  0  0  0  0  0  0  0  0  0  0
   -9.4733  -13.1420   15.6622 C   0  0  0  0  0  0  0  0  0  0  0  0
  4  5  1  6
  5  6  1  0
  6  7  1  0
  6  8  2  0
  8  9  1  0
 10  9  1  1
  8 11  1  0
 11 12  2  0
 13 12  1  6
 13 14  1  0
 14 15  1  1
 16 15  1  6
  1 16  1  0
 15 17  1  0
  7 18  2  0
 12 18  1  0
 17 18  1  6
 17 19  1  0
 19 20  1  1
  2 20  2  0
  1 20  1  0
  2 21  1  0
 21 22  2  0
 22 23  1  0
 24 23  1  1
  1 25  2  0
 22 25  1  0
  3 25  1  0
 26  3  1  1
M  END
$$$$
