1X8X_TYR_A_952
     RDKit          3D

 13 13  0  0  0  0  0  0  0  0999 V2000
   27.1235   32.8246   12.9617 N   0  0  0  0  0  0  0  0  0  0  0  0
   26.0698   32.1247   12.2064 C   0  0  2  0  0  0  0  0  0  0  0  0
   26.7283   31.4624   11.0518 C   0  0  0  0  0  0  0  0  0  0  0  0
   26.1691   30.5625   10.3621 O   0  0  0  0  0  0  0  0  0  0  0  0
   25.1181   33.1779   11.7667 C   0  0  0  0  0  0  0  0  0  0  0  0
   24.4984   33.9915   12.7996 C   0  0  0  0  0  0  0  0  0  0  0  0
   24.3598   35.3483   12.5899 C   0  0  0  0  0  0  0  0  0  0  0  0
   24.0338   33.4806   13.9937 C   0  0  0  0  0  0  0  0  0  0  0  0
   23.7768   36.1922   13.5317 C   0  0  0  0  0  0  0  0  0  0  0  0
   23.4463   34.3013   14.9540 C   0  0  0  0  0  0  0  0  0  0  0  0
   23.3113   35.6586   14.7363 C   0  0  0  0  0  0  0  0  0  0  0  0
   22.7241   36.4950   15.6899 O   0  0  0  0  0  0  0  0  0  0  0  0
   28.0313   31.7976   10.6466 O   0  0  0  0  0  0  0  0  0  0  0  0
  2  1  1  1
  2  3  1  0
  3  4  2  0
  2  5  1  0
  5  6  1  0
  6  7  2  0
  6  8  1  0
  7  9  1  0
  8 10  2  0
  9 11  2  0
 10 11  1  0
 11 12  1  0
  3 13  1  0
M  END
$$$$
