1X8X_TYR_A_952
     RDKit          3D

 13 13  0  0  0  0  0  0  0  0999 V2000
   -9.7600   34.4984   48.8468 N   0  0  0  0  0  0  0  0  0  0  0  0
   -8.4807   33.8090   49.0888 C   0  0  2  0  0  0  0  0  0  0  0  0
   -7.4014   34.8074   48.8801 C   0  0  0  0  0  0  0  0  0  0  0  0
   -6.1921   34.5877   49.1755 O   0  0  0  0  0  0  0  0  0  0  0  0
   -8.4156   32.7117   48.0886 C   0  0  0  0  0  0  0  0  0  0  0  0
   -9.5185   31.7653   48.0626 C   0  0  0  0  0  0  0  0  0  0  0  0
  -10.5689   31.9850   47.1952 C   0  0  0  0  0  0  0  0  0  0  0  0
   -9.5782   30.6447   48.8647 C   0  0  0  0  0  0  0  0  0  0  0  0
  -11.6600   31.1237   47.1128 C   0  0  0  0  0  0  0  0  0  0  0  0
  -10.6573   29.7658   48.8036 C   0  0  0  0  0  0  0  0  0  0  0  0
  -11.7050   29.9929   47.9324 C   0  0  0  0  0  0  0  0  0  0  0  0
  -12.7946   29.1205   47.8594 O   0  0  0  0  0  0  0  0  0  0  0  0
   -7.6582   36.0764   48.3341 O   0  0  0  0  0  0  0  0  0  0  0  0
  2  1  1  6
  2  3  1  0
  3  4  2  0
  2  5  1  0
  5  6  1  0
  6  7  2  0
  6  8  1  0
  7  9  1  0
  8 10  2  0
  9 11  2  0
 10 11  1  0
 11 12  1  0
  3 13  1  0
M  END
$$$$
