1X8X_TYR_A_952
     RDKit          3D

 13 13  0  0  0  0  0  0  0  0999 V2000
   -8.9628   14.9135   34.2223 N   0  0  0  0  0  0  0  0  0  0  0  0
  -10.1800   14.5663   34.9762 C   0  0  2  0  0  0  0  0  0  0  0  0
  -10.7627   13.3617   34.3321 C   0  0  0  0  0  0  0  0  0  0  0  0
  -11.4614   12.5145   34.9584 O   0  0  0  0  0  0  0  0  0  0  0  0
  -11.0801   15.7428   34.8576 C   0  0  0  0  0  0  0  0  0  0  0  0
  -10.5688   17.0238   35.3165 C   0  0  0  0  0  0  0  0  0  0  0  0
   -9.9555   17.0967   36.5504 C   0  0  0  0  0  0  0  0  0  0  0  0
  -10.6615   18.1872   34.5813 C   0  0  0  0  0  0  0  0  0  0  0  0
   -9.4409   18.2871   37.0577 C   0  0  0  0  0  0  0  0  0  0  0  0
  -10.1557   19.3922   35.0638 C   0  0  0  0  0  0  0  0  0  0  0  0
   -9.5430   19.4568   36.3001 C   0  0  0  0  0  0  0  0  0  0  0  0
   -9.0306   20.6581   36.7980 O   0  0  0  0  0  0  0  0  0  0  0  0
  -10.5723   13.0826   32.9682 O   0  0  0  0  0  0  0  0  0  0  0  0
  2  1  1  6
  2  3  1  0
  3  4  2  0
  2  5  1  0
  5  6  1  0
  6  7  2  0
  6  8  1  0
  7  9  1  0
  8 10  2  0
  9 11  2  0
 10 11  1  0
 11 12  1  0
  3 13  1  0
M  END
$$$$
