1X8X_TYR_A_952
     RDKit          3D

 13 13  0  0  0  0  0  0  0  0999 V2000
   -2.7100   34.2916    9.4954 N   0  0  0  0  0  0  0  0  0  0  0  0
   -3.9768   33.9855   10.1823 C   0  0  2  0  0  0  0  0  0  0  0  0
   -4.4422   35.2437   10.8192 C   0  0  0  0  0  0  0  0  0  0  0  0
   -3.6744   36.2176   11.0644 O   0  0  0  0  0  0  0  0  0  0  0  0
   -3.6495   32.9461   11.1928 C   0  0  0  0  0  0  0  0  0  0  0  0
   -3.3041   31.6223   10.7015 C   0  0  0  0  0  0  0  0  0  0  0  0
   -4.2345   30.9175    9.9657 C   0  0  0  0  0  0  0  0  0  0  0  0
   -2.0841   31.0207   10.9303 C   0  0  0  0  0  0  0  0  0  0  0  0
   -3.9770   29.6451    9.4615 C   0  0  0  0  0  0  0  0  0  0  0  0
   -1.7991   29.7489   10.4381 C   0  0  0  0  0  0  0  0  0  0  0  0
   -2.7360   29.0498    9.7023 C   0  0  0  0  0  0  0  0  0  0  0  0
   -2.4651   27.7732    9.2018 O   0  0  0  0  0  0  0  0  0  0  0  0
   -5.7825   35.4349   11.1950 O   0  0  0  0  0  0  0  0  0  0  0  0
  2  1  1  1
  2  3  1  0
  3  4  2  0
  2  5  1  0
  5  6  1  0
  6  7  2  0
  6  8  1  0
  7  9  1  0
  8 10  2  0
  9 11  2  0
 10 11  1  0
 11 12  1  0
  3 13  1  0
M  END
$$$$
