1IA1_TQ3_B_196
     RDKit          3D

 31 33  0  0  0  0  0  0  0  0999 V2000
   -0.9225   -0.1539    1.7498 C   0  0  0  0  0  0  0  0  0  0  0  0
    0.3237   -0.2573    1.0759 C   0  0  0  0  0  0  0  0  0  0  0  0
    0.9935   -1.5090    1.1603 C   0  0  0  0  0  0  0  0  0  0  0  0
    0.3725   -2.5611    1.7563 N   0  0  0  0  0  0  0  0  0  0  0  0
   -0.8517   -2.4444    2.3251 C   0  0  0  0  0  0  0  0  0  0  0  0
   -1.4751   -1.2425    2.3425 N   0  0  0  0  0  0  0  0  0  0  0  0
    2.3511   -1.6886    0.7523 N   0  0  0  0  0  0  0  0  0  0  0  0
   -1.6068    1.0636    1.7987 C   0  0  0  0  0  0  0  0  0  0  0  0
   -1.0873    2.1859    1.1610 C   0  0  0  0  0  0  0  0  0  0  0  0
    0.0926    2.0882    0.4276 C   0  0  0  0  0  0  0  0  0  0  0  0
    0.7890    0.8738    0.3419 C   0  0  0  0  0  0  0  0  0  0  0  0
   -1.4641   -3.5753    2.9400 N   0  0  0  0  0  0  0  0  0  0  0  0
    2.1422    0.8176   -0.8481 S   0  0  0  0  0  0  0  0  0  0  0  0
    1.0625    0.3524   -2.2031 C   0  0  0  0  0  0  0  0  0  0  0  0
    0.4549    1.3422   -2.9867 C   0  0  0  0  0  0  0  0  0  0  0  0
   -0.3932    0.9806   -4.0383 C   0  0  0  0  0  0  0  0  0  0  0  0
   -0.6324   -0.3697   -4.3120 C   0  0  0  0  0  0  0  0  0  0  0  0
   -0.0218   -1.3595   -3.5355 C   0  0  0  0  0  0  0  0  0  0  0  0
    0.8267   -1.0000   -2.4837 C   0  0  0  0  0  0  0  0  0  0  0  0
    2.7160   -2.6539    0.5933 H   0  0  0  0  0  0  0  0  0  0  0  0
    3.0567   -0.9362    0.9063 H   0  0  0  0  0  0  0  0  0  0  0  0
   -2.5475    1.1402    2.3302 H   0  0  0  0  0  0  0  0  0  0  0  0
   -1.6212    3.1266    1.2029 H   0  0  0  0  0  0  0  0  0  0  0  0
    0.4460    2.9565   -0.1147 H   0  0  0  0  0  0  0  0  0  0  0  0
   -2.4011   -3.4883    3.3925 H   0  0  0  0  0  0  0  0  0  0  0  0
   -0.9820   -4.5015    2.9422 H   0  0  0  0  0  0  0  0  0  0  0  0
    0.6349    2.3893   -2.7792 H   0  0  0  0  0  0  0  0  0  0  0  0
   -0.8648    1.7464   -4.6405 H   0  0  0  0  0  0  0  0  0  0  0  0
   -1.2891   -0.6488   -5.1258 H   0  0  0  0  0  0  0  0  0  0  0  0
   -0.2056   -2.4045   -3.7490 H   0  0  0  0  0  0  0  0  0  0  0  0
    1.2967   -1.7720   -1.8889 H   0  0  0  0  0  0  0  0  0  0  0  0
  1  2  1  0
  2  3  2  0
  3  4  1  0
  4  5  2  0
  1  6  2  0
  5  6  1  0
  3  7  1  0
  1  8  1  0
  8  9  2  0
  9 10  1  0
  2 11  1  0
 10 11  2  0
  5 12  1  0
 11 13  1  0
 13 14  1  0
 14 15  2  0
 15 16  1  0
 16 17  2  0
 17 18  1  0
 14 19  1  0
 18 19  2  0
  7 20  1  0
  7 21  1  0
  8 22  1  0
  9 23  1  0
 10 24  1  0
 12 25  1  0
 12 26  1  0
 15 27  1  0
 16 28  1  0
 17 29  1  0
 18 30  1  0
 19 31  1  0
M  END
