7JY3_VUD_A_204
     RDKit          3D

 27 30  0  0  0  0  0  0  0  0999 V2000
   30.1202  -10.4461   33.0433 C   0  0  0  0  0  0  0  0  0  0  0  0
   30.6968  -12.1211   35.0825 C   0  0  0  0  0  0  0  0  0  0  0  0
   31.7242  -11.3089   34.6217 C   0  0  0  0  0  0  0  0  0  0  0  0
   29.3145   -7.8838   30.6701 C   0  0  0  0  0  0  0  0  0  0  0  0
   27.2476  -12.4333   32.5091 O   0  0  0  0  0  0  0  0  0  0  0  0
   28.1480  -13.1090   26.6210 C   0  0  0  0  0  0  0  0  0  0  0  0
   27.9111  -14.4860   26.5472 C   0  0  0  0  0  0  0  0  0  0  0  0
   27.7329  -13.1333   28.9862 C   0  0  0  0  0  0  0  0  0  0  0  0
   27.3129  -13.1563   31.3799 C   0  0  0  0  0  0  0  0  0  0  0  0
   28.0532  -12.4637   27.8408 C   0  0  0  0  0  0  0  0  0  0  0  0
   26.7521  -10.6994   33.9996 C   0  0  0  0  0  0  0  0  0  0  0  0
   27.7463  -11.2549   32.9652 C   0  0  1  0  0  0  0  0  0  0  0  0
   29.1224  -11.2663   33.5250 C   0  0  0  0  0  0  0  0  0  0  0  0
   31.4143  -10.4631   33.5845 C   0  0  0  0  0  0  0  0  0  0  0  0
   29.4628  -12.0952   34.5561 N   0  0  0  0  0  0  0  0  0  0  0  0
   30.9943  -12.8929   36.0348 O   0  0  0  0  0  0  0  0  0  0  0  0
   29.9272   -9.5341   31.9709 N   0  0  0  0  0  0  0  0  0  0  0  0
   30.5684   -9.6779   30.7740 C   0  0  0  0  0  0  0  0  0  0  0  0
   30.1982   -8.6452   29.9304 C   0  0  0  0  0  0  0  0  0  0  0  0
   29.1759   -8.4504   31.8941 N   0  0  0  0  0  0  0  0  0  0  0  0
   27.6423  -12.4779   30.1924 C   0  0  0  0  0  0  0  0  0  0  0  0
   27.5843  -15.1685   27.7165 C   0  0  0  0  0  0  0  0  0  0  0  0
   27.4961  -14.4892   28.9337 C   0  0  0  0  0  0  0  0  0  0  0  0
   27.1809  -15.1547   30.0537 N   0  0  0  0  0  0  0  0  0  0  0  0
   27.0937  -14.5082   31.2303 C   0  0  0  0  0  0  0  0  0  0  0  0
   26.7538  -15.2967   32.3622 N   0  0  0  0  0  0  0  0  0  0  0  0
   28.4647  -12.4429   25.4932 F   0  0  0  0  0  0  0  0  0  0  0  0
  2  3  1  0
  6  7  2  0
  5  9  1  0
  8 10  2  0
  6 10  1  0
 12 11  1  1
  5 12  1  0
  1 13  2  0
 12 13  1  0
  1 14  1  0
  3 14  2  0
 13 15  1  0
  2 15  1  0
  2 16  2  0
  1 17  1  0
 17 18  1  0
 18 19  2  0
  4 19  1  0
  4 20  2  0
 17 20  1  0
  9 21  2  0
  8 21  1  0
  7 22  1  0
  8 23  1  0
 22 23  2  0
 23 24  1  0
  9 25  1  0
 24 25  2  0
 25 26  1  0
  6 27  1  0
M  END
$$$$
