8FO5_Y4U_A_301
     RDKit          3D

 17 18  0  0  0  0  0  0  0  0999 V2000
   44.2159  -25.1208   26.3587 O   0  0  0  0  0  0  0  0  0  0  0  0
   45.5110  -30.3628   30.5230 O   0  0  0  0  0  0  0  0  0  0  0  0
   46.5024  -31.5659   27.9561 C   0  0  0  0  0  0  0  0  0  0  0  0
   47.0112  -32.4417   27.0035 C   0  0  0  0  0  0  0  0  0  0  0  0
   48.3894  -32.4824   26.7714 C   0  0  0  0  0  0  0  0  0  0  0  0
   49.2154  -31.6427   27.5023 C   0  0  0  0  0  0  0  0  0  0  0  0
   48.7156  -30.7753   28.4451 C   0  0  0  0  0  0  0  0  0  0  0  0
   46.7899  -27.1057   28.9493 C   0  0  0  0  0  0  0  0  0  0  0  0
   46.0694  -26.2129   28.1634 C   0  0  0  0  0  0  0  0  0  0  0  0
   44.9256  -26.8503   27.7285 C   0  0  0  0  0  0  0  0  0  0  0  0
   43.9229  -26.2335   26.8822 C   0  0  0  0  0  0  0  0  0  0  0  0
   42.6073  -26.8793   26.6395 C   0  0  0  0  0  0  0  0  0  0  0  0
   44.9711  -28.1228   28.2592 C   0  0  0  0  0  0  0  0  0  0  0  0
   46.6513  -29.6445   29.8703 S   0  0  2  0  0  0  0  0  0  0  0  0
   47.6751  -29.2068   30.8588 O   0  0  0  0  0  0  0  0  0  0  0  0
   46.0870  -28.2735   28.9890 N   0  0  0  0  0  0  0  0  0  0  0  0
   47.3469  -30.7400   28.6706 C   0  0  0  0  0  0  0  0  0  0  0  0
  3  4  2  0
  4  5  1  0
  5  6  2  0
  6  7  1  0
  8  9  2  0
  9 10  1  0
  1 11  2  0
 10 11  1  0
 11 12  1  0
 10 13  2  0
  2 14  2  0
 14 15  2  0
 14 16  1  6
 13 16  1  0
  8 16  1  0
  7 17  2  0
 14 17  1  0
  3 17  1  0
M  END
$$$$
