8ACL_LQL_A_401
     RDKit          3D

 31 34  0  0  0  0  0  0  0  0999 V2000
   11.5820    1.3640   19.5470 N   0  0  0  0  0  0  0  0  0  0  0  0
    8.7610   -0.1050   16.1850 N   0  0  0  0  0  0  0  0  0  0  0  0
    8.9800   -0.8910   27.1570 C   0  0  0  0  0  0  0  0  0  0  0  0
    7.7690   -1.1540   26.6270 C   0  0  0  0  0  0  0  0  0  0  0  0
   10.2190    0.4820   21.3540 C   0  0  1  0  0  0  0  0  0  0  0  0
   11.2260    0.1400   20.2520 C   0  0  0  0  0  0  0  0  0  0  0  0
   12.1630    2.3540   20.4470 C   0  0  0  0  0  0  0  0  0  0  0  0
   10.0530    1.7540   23.4480 C   0  0  0  0  0  0  0  0  0  0  0  0
    8.6610    2.3000   25.7870 C   0  0  0  0  0  0  0  0  0  0  0  0
   10.7060    2.3000   24.5370 C   0  0  0  0  0  0  0  0  0  0  0  0
   10.7110    0.6000   17.3940 C   0  0  0  0  0  0  0  0  0  0  0  0
   10.7870   -1.3690   16.0340 C   0  0  0  0  0  0  0  0  0  0  0  0
   11.4150   -0.4870   16.8980 C   0  0  0  0  0  0  0  0  0  0  0  0
   10.6540   -1.1610   23.0860 N   0  0  0  0  0  0  0  0  0  0  0  0
    9.8750   -0.8310   22.0500 C   0  0  0  0  0  0  0  0  0  0  0  0
    8.9680   -1.5390   21.6200 O   0  0  0  0  0  0  0  0  0  0  0  0
   10.3530   -2.2880   23.9330 C   0  0  0  0  0  0  0  0  0  0  0  0
    8.6700    1.4890   23.5250 C   0  0  0  0  0  0  0  0  0  0  0  0
    7.9900    1.7740   24.6980 C   0  0  0  0  0  0  0  0  0  0  0  0
   10.0160    2.5740   25.7030 C   0  0  0  0  0  0  0  0  0  0  0  0
   11.3460    1.6490   18.2550 C   0  0  0  0  0  0  0  0  0  0  0  0
    9.3880    0.7370   17.0170 C   0  0  0  0  0  0  0  0  0  0  0  0
    9.4720   -1.1340   15.6980 C   0  0  0  0  0  0  0  0  0  0  0  0
    9.5730   -1.8240   25.1240 C   0  0  0  0  0  0  0  0  0  0  0  0
   10.0430   -1.2710   26.3030 C   0  0  0  0  0  0  0  0  0  0  0  0
   11.1810    2.6840   21.5380 C   0  0  0  0  0  0  0  0  0  0  0  0
   10.7730    1.4810   22.2700 N   0  0  0  0  0  0  0  0  0  0  0  0
   11.5870    2.7480   17.7880 O   0  0  0  0  0  0  0  0  0  0  0  0
    7.8810   -1.8680   25.0980 S   0  0  0  0  0  0  0  0  0  0  0  0
    6.2640    1.4860   24.7640 Cl  0  0  0  0  0  0  0  0  0  0  0  0
    7.8510    2.5860   27.2900 Cl  0  0  0  0  0  0  0  0  0  0  0  0
  3  4  2  0
  1  6  1  0
  5  6  1  0
  1  7  1  0
  8 10  1  0
 12 13  1  0
 11 13  2  0
  5 15  1  1
 14 15  1  0
 15 16  2  0
 14 17  1  0
  8 18  2  0
 18 19  1  0
  9 19  2  0
 10 20  2  0
  9 20  1  0
 11 21  1  0
  1 21  1  0
  2 22  2  0
 11 22  1  0
 12 23  2  0
  2 23  1  0
 17 24  1  0
 24 25  2  0
  3 25  1  0
  7 26  1  0
  5 27  1  0
 26 27  1  0
  8 27  1  0
 21 28  2  0
 24 29  1  0
  4 29  1  0
 19 30  1  0
  9 31  1  0
M  END
$$$$
