5S8I_2LY_A_1501
     RDKit          3D

 13 14  0  0  0  0  0  0  0  0999 V2000
  -21.9172   11.7727   28.2359 C   0  0  0  0  0  0  0  0  0  0  0  0
  -21.1818   12.9572   27.8369 N   0  0  0  0  0  0  0  0  0  0  0  0
  -20.4834   12.9138   26.6029 C   0  0  0  0  0  0  0  0  0  0  0  0
  -19.7098   14.0397   26.1592 C   0  0  0  0  0  0  0  0  0  0  0  0
  -19.4585   15.2719   26.6630 C   0  0  0  0  0  0  0  0  0  0  0  0
  -18.6763   16.1249   25.9994 C   0  0  0  0  0  0  0  0  0  0  0  0
  -18.1571   15.6478   24.7785 C   0  0  0  0  0  0  0  0  0  0  0  0
  -18.8085   13.9604   24.6000 S   0  0  0  0  0  0  0  0  0  0  0  0
  -18.4220   17.3911   26.5229 O   0  0  0  0  0  0  0  0  0  0  0  0
  -18.9896   17.8661   27.7015 C   0  0  0  0  0  0  0  0  0  0  0  0
  -19.2180   16.6862   28.6560 C   0  0  0  0  0  0  0  0  0  0  0  0
  -19.9852   15.7620   27.9060 O   0  0  0  0  0  0  0  0  0  0  0  0
  -20.5584   11.8674   25.9091 O   0  0  0  0  0  0  0  0  0  0  0  0
  1  2  1  0
  2  3  1  0
  3  4  1  0
  4  5  2  0
  5  6  1  0
  6  7  2  0
  7  8  1  0
  4  8  1  0
  6  9  1  0
  9 10  1  0
 10 11  1  0
  5 12  1  0
 11 12  1  0
  3 13  2  0
M  END
$$$$
