2BM2_PM2_B_3211
     RDKit          3D

 30 33  0  0  0  0  0  0  0  0999 V2000
   29.8327   58.1646   86.6967 C   0  0  0  0  0  0  0  0  0  0  0  0
   28.9603   58.9859   86.0095 C   0  0  0  0  0  0  0  0  0  0  0  0
   31.1652   58.5319   86.6749 C   0  0  0  0  0  0  0  0  0  0  0  0
   29.4229   60.1034   85.3476 C   0  0  0  0  0  0  0  0  0  0  0  0
   31.6318   59.6483   86.0144 C   0  0  0  0  0  0  0  0  0  0  0  0
   30.7583   60.4536   85.3372 C   0  0  0  0  0  0  0  0  0  0  0  0
   28.4911   61.0134   84.5973 C   0  0  0  0  0  0  0  0  0  0  0  0
   27.2348   60.9836   85.3591 N   0  0  0  0  0  0  0  0  0  0  0  0
   30.5173   56.0107   87.7738 C   0  0  0  0  0  0  0  0  0  0  0  0
   30.0454   55.1134   88.9212 C   0  0  0  0  0  0  0  0  0  0  0  0
   29.8086   55.4371   91.4179 C   0  0  0  0  0  0  0  0  0  0  0  0
   30.3167   54.2836   91.6424 O   0  0  0  0  0  0  0  0  0  0  0  0
   29.3845   56.9344   87.4158 C   0  0  1  0  0  0  0  0  0  0  0  0
   29.7281   55.9367   90.0872 N   0  0  0  0  0  0  0  0  0  0  0  0
   29.3209   57.3152   89.8826 C   0  0  0  0  0  0  0  0  0  0  0  0
   28.5471   57.3647   88.5918 C   0  0  0  0  0  0  0  0  0  0  0  0
   29.3421   56.1623   92.5735 C   0  0  0  0  0  0  0  0  0  0  0  0
   28.9647   57.4858   92.3832 C   0  0  0  0  0  0  0  0  0  0  0  0
   29.2445   55.6416   93.8435 C   0  0  0  0  0  0  0  0  0  0  0  0
   28.5057   58.2683   93.4158 C   0  0  0  0  0  0  0  0  0  0  0  0
   28.7953   56.4091   94.8507 N   0  0  0  0  0  0  0  0  0  0  0  0
   28.1317   59.6679   93.1153 C   0  0  0  0  0  0  0  0  0  0  0  0
   28.4299   57.6940   94.6604 C   0  0  0  0  0  0  0  0  0  0  0  0
   29.2907   60.6098   93.4510 C   0  0  0  0  0  0  0  0  0  0  0  0
   28.9145   61.9936   93.1195 C   0  0  0  0  0  0  0  0  0  0  0  0
   27.6285   62.4875   93.1782 C   0  0  0  0  0  0  0  0  0  0  0  0
   29.9145   62.8656   92.7185 C   0  0  0  0  0  0  0  0  0  0  0  0
   27.3585   63.8077   92.8462 C   0  0  0  0  0  0  0  0  0  0  0  0
   29.6617   64.1775   92.3864 C   0  0  0  0  0  0  0  0  0  0  0  0
   28.3700   64.6597   92.4491 C   0  0  0  0  0  0  0  0  0  0  0  0
  1  2  2  0
  1  3  1  0
  2  4  1  0
  3  5  2  0
  4  6  2  0
  5  6  1  0
  4  7  1  0
  7  8  1  0
  9 10  1  0
 11 12  2  0
 13  1  1  1
  9 13  1  0
 10 14  1  0
 11 14  1  0
 14 15  1  0
 13 16  1  0
 15 16  1  0
 11 17  1  0
 17 18  2  0
 17 19  1  0
 18 20  1  0
 19 21  2  0
 20 22  1  0
 20 23  2  0
 21 23  1  0
 22 24  1  0
 24 25  1  0
 25 26  2  0
 25 27  1  0
 26 28  1  0
 27 29  2  0
 28 30  2  0
 29 30  1  0
M  END
$$$$
