2BM2_PM2_B_3211
     RDKit          3D

 30 33  0  0  0  0  0  0  0  0999 V2000
   51.8958   98.9484  104.5731 C   0  0  0  0  0  0  0  0  0  0  0  0
   50.6333   99.4229  104.2748 C   0  0  0  0  0  0  0  0  0  0  0  0
   52.6492   99.7162  105.4412 C   0  0  0  0  0  0  0  0  0  0  0  0
   50.1778  100.6008  104.8280 C   0  0  0  0  0  0  0  0  0  0  0  0
   52.1975  100.8943  105.9965 C   0  0  0  0  0  0  0  0  0  0  0  0
   50.9458  101.3540  105.6933 C   0  0  0  0  0  0  0  0  0  0  0  0
   48.8061  101.1335  104.5211 C   0  0  0  0  0  0  0  0  0  0  0  0
   48.4997  102.0541  105.6248 N   0  0  0  0  0  0  0  0  0  0  0  0
   53.5705   97.1003  104.7919 C   0  0  0  0  0  0  0  0  0  0  0  0
   53.6776   95.6153  104.4347 C   0  0  0  0  0  0  0  0  0  0  0  0
   52.3979   93.5476  105.1282 C   0  0  0  0  0  0  0  0  0  0  0  0
   53.4842   92.9061  105.3459 O   0  0  0  0  0  0  0  0  0  0  0  0
   52.4420   97.6871  103.9880 C   0  0  1  0  0  0  0  0  0  0  0  0
   52.4380   94.9330  104.8032 N   0  0  0  0  0  0  0  0  0  0  0  0
   51.2032   95.6957  104.8445 C   0  0  0  0  0  0  0  0  0  0  0  0
   51.2894   96.7428  103.7658 C   0  0  0  0  0  0  0  0  0  0  0  0
   51.1779   92.7862  105.2334 C   0  0  0  0  0  0  0  0  0  0  0  0
   50.8174   92.0097  104.1391 C   0  0  0  0  0  0  0  0  0  0  0  0
   50.3499   92.7734  106.3324 C   0  0  0  0  0  0  0  0  0  0  0  0
   49.6749   91.2455  104.1327 C   0  0  0  0  0  0  0  0  0  0  0  0
   49.2339   92.0252  106.3230 N   0  0  0  0  0  0  0  0  0  0  0  0
   49.3730   90.4552  102.9189 C   0  0  0  0  0  0  0  0  0  0  0  0
   48.8884   91.2727  105.2576 C   0  0  0  0  0  0  0  0  0  0  0  0
   49.9064   91.1701  101.6749 C   0  0  0  0  0  0  0  0  0  0  0  0
   49.4948   90.4348  100.4681 C   0  0  0  0  0  0  0  0  0  0  0  0
   48.1966   90.3503  100.0113 C   0  0  0  0  0  0  0  0  0  0  0  0
   50.4721   89.7784   99.7364 C   0  0  0  0  0  0  0  0  0  0  0  0
   47.8929   89.6332   98.8625 C   0  0  0  0  0  0  0  0  0  0  0  0
   50.1856   89.0636   98.5952 C   0  0  0  0  0  0  0  0  0  0  0  0
   48.8820   88.9866   98.1484 C   0  0  0  0  0  0  0  0  0  0  0  0
  1  2  2  0
  1  3  1  0
  2  4  1  0
  3  5  2  0
  4  6  2  0
  5  6  1  0
  4  7  1  0
  7  8  1  0
  9 10  1  0
 11 12  2  0
 13  1  1  1
  9 13  1  0
 10 14  1  0
 11 14  1  0
 14 15  1  0
 13 16  1  0
 15 16  1  0
 11 17  1  0
 17 18  2  0
 17 19  1  0
 18 20  1  0
 19 21  2  0
 20 22  1  0
 20 23  2  0
 21 23  1  0
 22 24  1  0
 24 25  1  0
 25 26  2  0
 25 27  1  0
 26 28  1  0
 27 29  2  0
 28 30  2  0
 29 30  1  0
M  END
$$$$
