2BM2_PM2_B_3211
     RDKit          3D

 30 33  0  0  0  0  0  0  0  0999 V2000
   32.6923   83.1484   88.8232 C   0  0  0  0  0  0  0  0  0  0  0  0
   31.4132   82.8831   88.3743 C   0  0  0  0  0  0  0  0  0  0  0  0
   33.0403   82.5962   90.0418 C   0  0  0  0  0  0  0  0  0  0  0  0
   30.5538   82.1071   89.1228 C   0  0  0  0  0  0  0  0  0  0  0  0
   32.1842   81.8199   90.7932 C   0  0  0  0  0  0  0  0  0  0  0  0
   30.9201   81.5645   90.3382 C   0  0  0  0  0  0  0  0  0  0  0  0
   29.1595   81.8019   88.6516 C   0  0  0  0  0  0  0  0  0  0  0  0
   28.5880   80.9342   89.6908 N   0  0  0  0  0  0  0  0  0  0  0  0
   35.0525   83.9573   88.6164 C   0  0  0  0  0  0  0  0  0  0  0  0
   36.0134   84.3872   87.5045 C   0  0  0  0  0  0  0  0  0  0  0  0
   37.0153   83.2138   85.5011 C   0  0  0  0  0  0  0  0  0  0  0  0
   38.2085   83.5196   85.8498 O   0  0  0  0  0  0  0  0  0  0  0  0
   33.6556   83.9958   88.0582 C   0  0  1  0  0  0  0  0  0  0  0  0
   35.9288   83.4416   86.3924 N   0  0  0  0  0  0  0  0  0  0  0  0
   34.6946   82.7038   86.1914 C   0  0  0  0  0  0  0  0  0  0  0  0
   33.5629   83.6064   86.6059 C   0  0  0  0  0  0  0  0  0  0  0  0
   36.8638   82.6430   84.1856 C   0  0  0  0  0  0  0  0  0  0  0  0
   35.8727   83.1774   83.3716 C   0  0  0  0  0  0  0  0  0  0  0  0
   37.6250   81.6135   83.6814 C   0  0  0  0  0  0  0  0  0  0  0  0
   35.6426   82.7083   82.1003 C   0  0  0  0  0  0  0  0  0  0  0  0
   37.3976   81.1574   82.4383 N   0  0  0  0  0  0  0  0  0  0  0  0
   34.5615   83.3386   81.3109 C   0  0  0  0  0  0  0  0  0  0  0  0
   36.4338   81.6800   81.6517 C   0  0  0  0  0  0  0  0  0  0  0  0
   33.2129   82.7024   81.6568 C   0  0  0  0  0  0  0  0  0  0  0  0
   32.1383   83.3957   80.9280 C   0  0  0  0  0  0  0  0  0  0  0  0
   30.7957   83.2741   81.2172 C   0  0  0  0  0  0  0  0  0  0  0  0
   32.4913   84.2278   79.8772 C   0  0  0  0  0  0  0  0  0  0  0  0
   29.8444   83.9630   80.4778 C   0  0  0  0  0  0  0  0  0  0  0  0
   31.5588   84.9172   79.1352 C   0  0  0  0  0  0  0  0  0  0  0  0
   30.2179   84.7869   79.4347 C   0  0  0  0  0  0  0  0  0  0  0  0
  1  2  2  0
  1  3  1  0
  2  4  1  0
  3  5  2  0
  4  6  2  0
  5  6  1  0
  4  7  1  0
  7  8  1  0
  9 10  1  0
 11 12  2  0
 13  1  1  1
  9 13  1  0
 10 14  1  0
 11 14  1  0
 14 15  1  0
 13 16  1  0
 15 16  1  0
 11 17  1  0
 17 18  2  0
 17 19  1  0
 18 20  1  0
 19 21  2  0
 20 22  1  0
 20 23  2  0
 21 23  1  0
 22 24  1  0
 24 25  1  0
 25 26  2  0
 25 27  1  0
 26 28  1  0
 27 29  2  0
 28 30  2  0
 29 30  1  0
M  END
$$$$
