2BM2_PM2_B_3211
     RDKit          3D

 30 33  0  0  0  0  0  0  0  0999 V2000
   35.3601   81.8888   87.2085 C   0  0  0  0  0  0  0  0  0  0  0  0
   34.3975   82.8306   87.5155 C   0  0  0  0  0  0  0  0  0  0  0  0
   35.4143   80.7784   88.0299 C   0  0  0  0  0  0  0  0  0  0  0  0
   33.5519   82.6454   88.5887 C   0  0  0  0  0  0  0  0  0  0  0  0
   34.5709   80.5893   89.1037 C   0  0  0  0  0  0  0  0  0  0  0  0
   33.6219   81.5291   89.3979 C   0  0  0  0  0  0  0  0  0  0  0  0
   32.4944   83.6547   88.9384 C   0  0  0  0  0  0  0  0  0  0  0  0
   32.9196   84.8961   88.2767 N   0  0  0  0  0  0  0  0  0  0  0  0
   37.2415   80.8795   85.9009 C   0  0  0  0  0  0  0  0  0  0  0  0
   37.7620   80.8957   84.4611 C   0  0  0  0  0  0  0  0  0  0  0  0
   36.7993   80.1665   82.2394 C   0  0  0  0  0  0  0  0  0  0  0  0
   36.0181   80.5112   81.2855 O   0  0  0  0  0  0  0  0  0  0  0  0
   36.3104   82.0499   86.0672 C   0  0  1  0  0  0  0  0  0  0  0  0
   36.6422   80.7367   83.5344 N   0  0  0  0  0  0  0  0  0  0  0  0
   35.3206   81.1709   83.9502 C   0  0  0  0  0  0  0  0  0  0  0  0
   35.5048   82.3743   84.8362 C   0  0  0  0  0  0  0  0  0  0  0  0
   37.8113   79.1929   81.9122 C   0  0  0  0  0  0  0  0  0  0  0  0
   38.4954   78.6075   82.9704 C   0  0  0  0  0  0  0  0  0  0  0  0
   38.1467   78.8042   80.6355 C   0  0  0  0  0  0  0  0  0  0  0  0
   39.4790   77.6683   82.7716 C   0  0  0  0  0  0  0  0  0  0  0  0
   39.1086   77.8858   80.4446 N   0  0  0  0  0  0  0  0  0  0  0  0
   40.1541   77.1049   83.9616 C   0  0  0  0  0  0  0  0  0  0  0  0
   39.7699   77.3203   81.4759 C   0  0  0  0  0  0  0  0  0  0  0  0
   40.8887   78.2089   84.7263 C   0  0  0  0  0  0  0  0  0  0  0  0
   41.3746   77.6804   86.0112 C   0  0  0  0  0  0  0  0  0  0  0  0
   41.5687   78.4418   87.1442 C   0  0  0  0  0  0  0  0  0  0  0  0
   41.6605   76.3267   86.0961 C   0  0  0  0  0  0  0  0  0  0  0  0
   42.0325   77.8640   88.3177 C   0  0  0  0  0  0  0  0  0  0  0  0
   42.1211   75.7399   87.2532 C   0  0  0  0  0  0  0  0  0  0  0  0
   42.3112   76.5131   88.3806 C   0  0  0  0  0  0  0  0  0  0  0  0
  1  2  2  0
  1  3  1  0
  2  4  1  0
  3  5  2  0
  4  6  2  0
  5  6  1  0
  4  7  1  0
  7  8  1  0
  9 10  1  0
 11 12  2  0
 13  1  1  1
  9 13  1  0
 10 14  1  0
 11 14  1  0
 14 15  1  0
 13 16  1  0
 15 16  1  0
 11 17  1  0
 17 18  2  0
 17 19  1  0
 18 20  1  0
 19 21  2  0
 20 22  1  0
 20 23  2  0
 21 23  1  0
 22 24  1  0
 24 25  1  0
 25 26  2  0
 25 27  1  0
 26 28  1  0
 27 29  2  0
 28 30  2  0
 29 30  1  0
M  END
$$$$
