2BM2_PM2_B_3211
     RDKit          3D

 30 33  0  0  0  0  0  0  0  0999 V2000
   46.4204   85.2011   87.0681 C   0  0  0  0  0  0  0  0  0  0  0  0
   46.8032   86.3458   86.3964 C   0  0  0  0  0  0  0  0  0  0  0  0
   46.5228   85.2367   88.4462 C   0  0  0  0  0  0  0  0  0  0  0  0
   47.2584   87.4471   87.0899 C   0  0  0  0  0  0  0  0  0  0  0  0
   46.9773   86.3356   89.1433 C   0  0  0  0  0  0  0  0  0  0  0  0
   47.3538   87.4631   88.4671 C   0  0  0  0  0  0  0  0  0  0  0  0
   47.6759   88.7045   86.3800 C   0  0  0  0  0  0  0  0  0  0  0  0
   46.6816   89.7122   86.7743 N   0  0  0  0  0  0  0  0  0  0  0  0
   45.2851   82.9802   87.2840 C   0  0  0  0  0  0  0  0  0  0  0  0
   44.3862   82.0761   86.4361 C   0  0  0  0  0  0  0  0  0  0  0  0
   42.0765   82.3360   85.4400 C   0  0  0  0  0  0  0  0  0  0  0  0
   41.6854   81.2248   85.9416 O   0  0  0  0  0  0  0  0  0  0  0  0
   45.9358   83.9766   86.3630 C   0  0  1  0  0  0  0  0  0  0  0  0
   43.3408   82.8798   85.8043 N   0  0  0  0  0  0  0  0  0  0  0  0
   43.5978   84.2846   85.5429 C   0  0  0  0  0  0  0  0  0  0  0  0
   45.0621   84.4171   85.2176 C   0  0  0  0  0  0  0  0  0  0  0  0
   41.1715   82.9686   84.5128 C   0  0  0  0  0  0  0  0  0  0  0  0
   41.6273   83.1669   83.2153 C   0  0  0  0  0  0  0  0  0  0  0  0
   39.8969   83.3878   84.8182 C   0  0  0  0  0  0  0  0  0  0  0  0
   40.8472   83.7606   82.2518 C   0  0  0  0  0  0  0  0  0  0  0  0
   39.1370   83.9676   83.8740 N   0  0  0  0  0  0  0  0  0  0  0  0
   41.4222   83.9324   80.8994 C   0  0  0  0  0  0  0  0  0  0  0  0
   39.5844   84.1578   82.6153 C   0  0  0  0  0  0  0  0  0  0  0  0
   40.3415   84.3949   79.9190 C   0  0  0  0  0  0  0  0  0  0  0  0
   40.9485   84.6631   78.6052 C   0  0  0  0  0  0  0  0  0  0  0  0
   41.1072   83.7197   77.6123 C   0  0  0  0  0  0  0  0  0  0  0  0
   41.3952   85.9483   78.3407 C   0  0  0  0  0  0  0  0  0  0  0  0
   41.6927   84.0559   76.3997 C   0  0  0  0  0  0  0  0  0  0  0  0
   41.9778   86.2963   77.1428 C   0  0  0  0  0  0  0  0  0  0  0  0
   42.1309   85.3426   76.1570 C   0  0  0  0  0  0  0  0  0  0  0  0
  1  2  2  0
  1  3  1  0
  2  4  1  0
  3  5  2  0
  4  6  2  0
  5  6  1  0
  4  7  1  0
  7  8  1  0
  9 10  1  0
 11 12  2  0
 13  1  1  1
  9 13  1  0
 10 14  1  0
 11 14  1  0
 14 15  1  0
 13 16  1  0
 15 16  1  0
 11 17  1  0
 17 18  2  0
 17 19  1  0
 18 20  1  0
 19 21  2  0
 20 22  1  0
 20 23  2  0
 21 23  1  0
 22 24  1  0
 24 25  1  0
 25 26  2  0
 25 27  1  0
 26 28  1  0
 27 29  2  0
 28 30  2  0
 29 30  1  0
M  END
$$$$
