7BJ6_TVK_A_207
     RDKit          3D

 64 68  0  0  0  0  0  0  0  0999 V2000
  -14.7346   -3.7795   -2.3174 C   0  0  0  0  0  0  0  0  0  0  0  0
  -13.3635   -3.2838   -1.8379 C   0  0  2  0  0  0  0  0  0  0  0  0
  -11.3766   -1.8970   -2.4599 C   0  0  1  0  0  0  0  0  0  0  0  0
  -13.4037   -1.9977   -4.1106 C   0  0  0  0  0  0  0  0  0  0  0  0
  -12.7355   -4.0908   -2.8589 C   0  0  0  0  0  0  0  0  0  0  0  0
  -13.0730   -5.3235   -2.2982 C   0  0  0  0  0  0  0  0  0  0  0  0
  -14.4014   -5.7530   -2.3126 C   0  0  0  0  0  0  0  0  0  0  0  0
  -15.3762   -4.9363   -2.8922 C   0  0  0  0  0  0  0  0  0  0  0  0
  -11.2177   -0.7301   -4.5102 C   0  0  0  0  0  0  0  0  0  0  0  0
  -11.5368   -0.2502   -5.6303 O   0  0  0  0  0  0  0  0  0  0  0  0
   -8.7973    0.0633   -4.3202 C   0  0  0  0  0  0  0  0  0  0  0  0
   -7.6329   -0.8228   -2.3748 C   0  0  0  0  0  0  0  0  0  0  0  0
   -8.8129   -1.4451   -1.9365 C   0  0  0  0  0  0  0  0  0  0  0  0
   -9.9956   -1.2567   -2.6668 C   0  0  0  0  0  0  0  0  0  0  0  0
   -6.3095    0.5966   -4.0565 C   0  0  1  0  0  0  0  0  0  0  0  0
   -5.2481   -0.4775   -4.3768 C   0  0  0  0  0  0  0  0  0  0  0  0
   -6.6069    1.4121   -5.3204 C   0  0  0  0  0  0  0  0  0  0  0  0
  -11.1820   -5.4026   -0.9009 C   0  0  0  0  0  0  0  0  0  0  0  0
  -11.0457   -4.2384   -3.4371 C   0  0  0  0  0  0  0  0  0  0  0  0
  -12.1897   -3.5783   -2.7659 C   0  0  0  0  0  0  0  0  0  0  0  0
  -12.3509   -4.3613   -1.4649 C   0  0  0  0  0  0  0  0  0  0  0  0
  -14.5622   -4.6650   -3.3895 O   0  0  0  0  0  0  0  0  0  0  0  0
  -13.2853   -1.9815   -1.0276 C   0  0  0  0  0  0  0  0  0  0  0  0
  -12.1273   -1.2689   -1.4190 O   0  0  0  0  0  0  0  0  0  0  0  0
  -12.0551   -1.5739   -3.7282 N   0  0  0  0  0  0  0  0  0  0  0  0
  -13.7374   -3.3005   -3.4424 C   0  0  0  0  0  0  0  0  0  0  0  0
  -14.8409   -7.2992   -1.6118 Cl  0  0  0  0  0  0  0  0  0  0  0  0
  -15.0256   -3.7427   -3.4418 N   0  0  0  0  0  0  0  0  0  0  0  0
   -9.9562   -0.5480   -3.8493 C   0  0  0  0  0  0  0  0  0  0  0  0
   -7.6140   -0.0282   -3.5513 C   0  0  0  0  0  0  0  0  0  0  0  0
   -8.7752   -2.2645   -0.8572 F   0  0  0  0  0  0  0  0  0  0  0  0
   -5.7729    1.4790   -3.0966 O   0  0  0  0  0  0  0  0  0  0  0  0
  -11.3079   -3.4203   -2.3198 C   0  0  0  0  0  0  0  0  0  0  0  0
  -11.3427   -4.0219   -1.0436 C   0  0  0  0  0  0  0  0  0  0  0  0
  -10.9653   -6.2034   -2.0242 C   0  0  0  0  0  0  0  0  0  0  0  0
  -10.7525   -7.9343   -1.8407 Cl  0  0  0  0  0  0  0  0  0  0  0  0
  -10.8945   -5.6199   -3.2912 C   0  0  0  0  0  0  0  0  0  0  0  0
  -15.2849   -4.2964   -1.4994 H   0  0  0  0  0  0  0  0  0  0  0  0
  -15.3407   -2.9040   -2.6394 H   0  0  0  0  0  0  0  0  0  0  0  0
  -14.1373   -1.2122   -3.8269 H   0  0  0  0  0  0  0  0  0  0  0  0
  -13.4625   -2.1170   -5.2133 H   0  0  0  0  0  0  0  0  0  0  0  0
  -11.7054   -3.7627   -2.8458 H   0  0  0  0  0  0  0  0  0  0  0  0
  -12.3040   -5.9425   -1.8556 H   0  0  0  0  0  0  0  0  0  0  0  0
  -16.4113   -5.2508   -2.9108 H   0  0  0  0  0  0  0  0  0  0  0  0
   -8.8146    0.5688   -5.2769 H   0  0  0  0  0  0  0  0  0  0  0  0
   -6.7277   -0.9937   -1.8099 H   0  0  0  0  0  0  0  0  0  0  0  0
   -4.2636    0.0031   -4.5577 H   0  0  0  0  0  0  0  0  0  0  0  0
   -5.1383   -1.1815   -3.5252 H   0  0  0  0  0  0  0  0  0  0  0  0
   -5.5079   -1.0548   -5.2874 H   0  0  0  0  0  0  0  0  0  0  0  0
   -7.3478    2.2097   -5.0993 H   0  0  0  0  0  0  0  0  0  0  0  0
   -5.6784    1.8949   -5.6935 H   0  0  0  0  0  0  0  0  0  0  0  0
   -7.0172    0.7614   -6.1244 H   0  0  0  0  0  0  0  0  0  0  0  0
  -11.2140   -5.8472    0.0856 H   0  0  0  0  0  0  0  0  0  0  0  0
  -10.9307   -3.8101   -4.4219 H   0  0  0  0  0  0  0  0  0  0  0  0
  -12.4224   -4.1755   -3.6732 H   0  0  0  0  0  0  0  0  0  0  0  0
  -11.3514   -2.8494   -2.7450 H   0  0  0  0  0  0  0  0  0  0  0  0
  -12.6759   -5.4126   -1.6154 H   0  0  0  0  0  0  0  0  0  0  0  0
  -11.6066   -4.0855   -0.6873 H   0  0  0  0  0  0  0  0  0  0  0  0
  -15.4726   -4.8963   -3.7054 H   0  0  0  0  0  0  0  0  0  0  0  0
  -14.1892   -1.3675   -1.2291 H   0  0  0  0  0  0  0  0  0  0  0  0
  -13.2609   -2.2525    0.0493 H   0  0  0  0  0  0  0  0  0  0  0  0
   -5.5460    0.9474   -2.2881 H   0  0  0  0  0  0  0  0  0  0  0  0
  -11.4774   -3.4224   -0.1522 H   0  0  0  0  0  0  0  0  0  0  0  0
  -10.7016   -6.2325   -4.1629 H   0  0  0  0  0  0  0  0  0  0  0  0
  2  1  1  6
  5  6  4  0
  6  7  4  0
  7  8  4  0
  9 10  2  0
 12 13  4  0
 13 14  4  0
  3 14  1  0
 15 16  1  0
 15 17  1  0
  2 20  1  0
  2 21  1  0
 20 21  1  0
  1 22  1  0
  2 23  1  0
  3 24  1  1
 23 24  1  0
  3 25  1  0
  9 25  1  0
  4 25  1  0
  5 26  4  0
  4 26  1  0
  7 27  1  0
  8 28  4  0
 26 28  4  0
 14 29  4  0
 11 29  4  0
  9 29  1  0
 12 30  4  0
 15 30  1  0
 11 30  4  0
 13 31  1  0
 15 32  1  1
 19 33  4  0
  3 33  1  0
 18 34  4  0
 33 34  4  0
 18 35  4  0
 35 36  1  0
 35 37  4  0
 19 37  4  0
  1 38  1  0
  1 39  1  0
  4 40  1  0
  4 41  1  0
  5 42  1  0
  6 43  1  0
  8 44  1  0
 11 45  1  0
 12 46  1  0
 16 47  1  0
 16 48  1  0
 16 49  1  0
 17 50  1  0
 17 51  1  0
 17 52  1  0
 18 53  1  0
 19 54  1  0
 20 55  1  0
 20 56  1  0
 21 57  1  0
 21 58  1  0
 22 59  1  0
 23 60  1  0
 23 61  1  0
 32 62  1  0
 34 63  1  0
 37 64  1  0
M  END
