8EAB_VN2_B_302
     RDKit          3D

 70 74  0  0  0  0  0  0  0  0999 V2000
    9.0009  -19.9591   22.9484 C   0  0  0  0  0  0  0  0  0  0  0  0
    7.6162  -20.0387   23.0273 C   0  0  0  0  0  0  0  0  0  0  0  0
    6.8465  -19.4673   22.0172 C   0  0  0  0  0  0  0  0  0  0  0  0
    5.3994  -19.5923   22.1180 C   0  0  0  0  0  0  0  0  0  0  0  0
    4.5802  -19.0704   21.1146 C   0  0  0  0  0  0  0  0  0  0  0  0
    3.1918  -19.1698   21.2095 C   0  0  0  0  0  0  0  0  0  0  0  0
    2.6048  -19.7924   22.3128 C   0  0  0  0  0  0  0  0  0  0  0  0
    3.4239  -20.3101   23.3175 C   0  0  0  0  0  0  0  0  0  0  0  0
    4.8128  -20.2128   23.2232 C   0  0  0  0  0  0  0  0  0  0  0  0
    9.2599  -17.0861   22.0674 C   0  0  0  0  0  0  0  0  0  0  0  0
    1.1254  -19.8913   22.4287 C   0  0  2  0  0  0  0  0  0  0  0  0
    8.8376  -15.3137   18.9959 C   0  0  0  0  0  0  0  0  0  0  0  0
    9.3902  -15.5959   17.7375 C   0  0  0  0  0  0  0  0  0  0  0  0
    9.7456  -14.5686   16.8606 C   0  0  0  0  0  0  0  0  0  0  0  0
    9.5530  -13.2398   17.2362 C   0  0  0  0  0  0  0  0  0  0  0  0
    9.0051  -12.9451   18.4877 C   0  0  0  0  0  0  0  0  0  0  0  0
    8.6501  -13.9786   19.3555 C   0  0  0  0  0  0  0  0  0  0  0  0
    8.7831  -11.5458   18.9282 C   0  0  2  0  0  0  0  0  0  0  0  0
    9.8044  -18.2419   21.3531 C   0  0  0  0  0  0  0  0  0  0  0  0
    9.7337  -19.4951   21.9286 C   0  0  0  0  0  0  0  0  0  0  0  0
   10.7097  -20.4514   20.0803 C   0  0  0  0  0  0  0  0  0  0  0  0
   10.8239  -19.2328   19.4295 C   0  0  0  0  0  0  0  0  0  0  0  0
   10.3588  -18.0985   20.0804 C   0  0  0  0  0  0  0  0  0  0  0  0
    8.4439  -16.4035   19.9736 C   0  0  2  0  0  0  0  0  0  0  0  0
   10.5020  -16.8223   19.4149 C   0  0  0  0  0  0  0  0  0  0  0  0
   11.3122  -15.8261   19.9617 C   0  0  0  0  0  0  0  0  0  0  0  0
   11.4412  -14.5977   19.3109 C   0  0  0  0  0  0  0  0  0  0  0  0
   10.7696  -14.3756   18.1105 C   0  0  0  0  0  0  0  0  0  0  0  0
    9.9622  -15.3721   17.5647 C   0  0  0  0  0  0  0  0  0  0  0  0
    9.8238  -16.5940   18.2193 C   0  0  0  0  0  0  0  0  0  0  0  0
   10.8877  -13.0742   17.4083 C   0  0  2  0  0  0  0  0  0  0  0  0
    7.0151  -16.8296   19.8396 C   0  0  0  0  0  0  0  0  0  0  0  0
    7.5320  -18.8526   20.9655 C   0  0  0  0  0  0  0  0  0  0  0  0
    8.9131  -18.8442   20.9531 C   0  0  0  0  0  0  0  0  0  0  0  0
    0.4517  -18.9561   21.7132 F   0  0  0  0  0  0  0  0  0  0  0  0
    0.7317  -19.7386   23.7279 F   0  0  0  0  0  0  0  0  0  0  0  0
    0.6441  -21.1016   22.0252 F   0  0  0  0  0  0  0  0  0  0  0  0
    7.5774  -11.0494   18.5563 F   0  0  0  0  0  0  0  0  0  0  0  0
    9.7094  -10.6887   18.4249 F   0  0  0  0  0  0  0  0  0  0  0  0
    8.8519  -11.4054   20.2780 F   0  0  0  0  0  0  0  0  0  0  0  0
   11.9410  -12.3309   17.8295 F   0  0  0  0  0  0  0  0  0  0  0  0
    9.7809  -12.3210   17.6427 F   0  0  0  0  0  0  0  0  0  0  0  0
   10.9800  -13.2115   16.0523 F   0  0  0  0  0  0  0  0  0  0  0  0
    9.6744  -19.3820   21.9255 N   0  0  0  0  0  0  0  0  0  0  0  0
    8.6801  -16.0891   21.3527 N   0  0  0  0  0  0  0  0  0  0  0  0
   10.1859  -20.6099   21.3201 N   0  0  0  0  0  0  0  0  0  0  0  0
    6.9596  -18.2124   19.8829 N   0  0  0  0  0  0  0  0  0  0  0  0
    9.3032  -17.1075   23.2839 O   0  0  0  0  0  0  0  0  0  0  0  0
    6.1399  -16.0416   19.5042 O   0  0  0  0  0  0  0  0  0  0  0  0
    9.5520  -20.3665   23.7199 H   0  0  0  0  0  0  0  0  0  0  0  0
    7.1633  -20.5149   23.8239 H   0  0  0  0  0  0  0  0  0  0  0  0
    5.0065  -18.6071   20.2957 H   0  0  0  0  0  0  0  0  0  0  0  0
    2.5968  -18.7816   20.4615 H   0  0  0  0  0  0  0  0  0  0  0  0
    2.9971  -20.7695   24.1383 H   0  0  0  0  0  0  0  0  0  0  0  0
    5.4076  -20.6002   23.9718 H   0  0  0  0  0  0  0  0  0  0  0  0
    9.5365  -16.5765   17.4548 H   0  0  0  0  0  0  0  0  0  0  0  0
   10.1501  -14.7918   15.9364 H   0  0  0  0  0  0  0  0  0  0  0  0
    9.8146  -12.4779   16.5912 H   0  0  0  0  0  0  0  0  0  0  0  0
    8.2425  -13.7528   20.2776 H   0  0  0  0  0  0  0  0  0  0  0  0
    9.3153  -19.5835   22.8685 H   0  0  0  0  0  0  0  0  0  0  0  0
   11.0458  -21.2926   19.5882 H   0  0  0  0  0  0  0  0  0  0  0  0
   11.2426  -19.1696   18.4877 H   0  0  0  0  0  0  0  0  0  0  0  0
    9.0955  -17.2051   19.6954 H   0  0  0  0  0  0  0  0  0  0  0  0
   11.8153  -15.9975   20.8461 H   0  0  0  0  0  0  0  0  0  0  0  0
   12.0323  -13.8560   19.7178 H   0  0  0  0  0  0  0  0  0  0  0  0
    9.4667  -15.2045   16.6753 H   0  0  0  0  0  0  0  0  0  0  0  0
    9.2200  -17.3292   17.8196 H   0  0  0  0  0  0  0  0  0  0  0  0
    9.3901  -18.4002   20.1521 H   0  0  0  0  0  0  0  0  0  0  0  0
    8.4405  -15.2193   21.7482 H   0  0  0  0  0  0  0  0  0  0  0  0
    6.5252  -18.7237   19.1638 H   0  0  0  0  0  0  0  0  0  0  0  0
  1  2  4  0
  2  3  4  0
  3  4  1  0
  4  5  4  0
  5  6  4  0
  6  7  4  0
  7  8  4  0
  8  9  4  0
  4  9  4  0
  7 11  1  0
 12 13  4  0
 13 14  4  0
 14 15  4  0
 15 16  4  0
 16 17  4  0
 12 17  4  0
 16 18  1  0
 10 19  1  0
 19 20  4  0
 21 22  4  0
 19 23  4  0
 22 23  4  0
 12 24  1  0
 23 25  1  0
 25 26  4  0
 26 27  4  0
 27 28  4  0
 28 29  4  0
 29 30  4  0
 25 30  4  0
 28 31  1  0
 24 32  1  0
  3 33  4  0
 33 34  4  0
 11 35  1  1
 11 36  1  0
 11 37  1  0
 18 38  1  1
 18 39  1  0
 18 40  1  0
 31 41  1  6
 31 42  1  0
 31 43  1  0
  1 44  4  0
 34 44  4  0
 24 45  1  0
 10 45  1  0
 20 46  4  0
 21 46  4  0
 33 47  1  0
 32 47  1  0
 10 48  2  0
 32 49  2  0
  1 50  1  0
  2 51  1  0
  5 52  1  0
  6 53  1  0
  8 54  1  0
  9 55  1  0
 13 56  1  0
 14 57  1  0
 15 58  1  0
 17 59  1  0
 20 60  1  0
 21 61  1  0
 22 62  1  0
 24 63  1  1
 26 64  1  0
 27 65  1  0
 29 66  1  0
 30 67  1  0
 34 68  1  0
 45 69  1  0
 47 70  1  0
M  END
