7WUX_6OI_C_402
     RDKit          3D

 33 32  0  0  0  0  0  0  0  0999 V2000
   14.5379    5.7722   -0.9777 N   0  0  0  0  0  0  0  0  0  0  0  0
   10.7167    5.2586   -0.7797 C   0  0  0  0  0  0  0  0  0  0  0  0
   10.7844    3.9021   -0.0407 C   0  0  1  0  0  0  0  0  0  0  0  0
   12.1449    3.5854    0.6510 C   0  0  2  0  0  0  0  0  0  0  0  0
   13.2194    4.6517    0.3675 C   0  0  0  0  0  0  0  0  0  0  0  0
   13.2859    5.0451   -0.7523 C   0  0  2  0  0  0  0  0  0  0  0  0
   13.1594    3.8872   -1.7064 C   0  0  0  0  0  0  0  0  0  0  0  0
   12.3246    3.9202   -2.6511 O   0  0  0  0  0  0  0  0  0  0  0  0
   13.9438    2.7538   -1.5170 O   0  0  0  0  0  0  0  0  0  0  0  0
   12.0709    5.9905   -0.8587 C   0  0  0  0  0  0  0  0  0  0  0  0
    9.7601    3.8815    0.9216 O   0  0  0  0  0  0  0  0  0  0  0  0
   12.6300    2.2559    0.2701 N   0  0  0  0  0  0  0  0  0  0  0  0
   13.4952    4.6834   -1.0127 O   0  0  0  0  0  0  0  0  0  0  0  0
   12.7110    3.3723   -1.7454 S   0  0  2  0  0  6  0  0  0  0  0  0
   13.7181    2.3303   -2.1454 O   0  0  0  0  0  0  0  0  0  0  0  0
   11.9979    3.8551   -2.9767 O   0  0  0  0  0  0  0  0  0  0  0  0
   11.5878    2.6931   -0.6931 O   0  0  0  0  0  0  0  0  0  0  0  0
   15.3345    5.1179   -0.7982 H   0  0  0  0  0  0  0  0  0  0  0  0
   14.6159    6.5259   -0.2564 H   0  0  0  0  0  0  0  0  0  0  0  0
    9.9547    5.9158   -0.3097 H   0  0  0  0  0  0  0  0  0  0  0  0
   10.3636    5.0497   -1.8120 H   0  0  0  0  0  0  0  0  0  0  0  0
   10.5759    3.1053   -0.7939 H   0  0  0  0  0  0  0  0  0  0  0  0
   11.9613    3.5805    1.7507 H   0  0  0  0  0  0  0  0  0  0  0  0
   12.8462    5.6424    0.7112 H   0  0  0  0  0  0  0  0  0  0  0  0
   14.1421    4.3872    0.9306 H   0  0  0  0  0  0  0  0  0  0  0  0
   13.2989    4.6274    0.2803 H   0  0  0  0  0  0  0  0  0  0  0  0
   13.8635    1.9570   -2.1374 H   0  0  0  0  0  0  0  0  0  0  0  0
   12.1327    6.7548   -0.0529 H   0  0  0  0  0  0  0  0  0  0  0  0
   12.1441    6.5200   -1.8312 H   0  0  0  0  0  0  0  0  0  0  0  0
    9.5725    2.9284    1.1282 H   0  0  0  0  0  0  0  0  0  0  0  0
   13.4864    2.0378    0.8296 H   0  0  0  0  0  0  0  0  0  0  0  0
   11.9161    1.5471    0.5565 H   0  0  0  0  0  0  0  0  0  0  0  0
   10.9856    3.4405   -0.4483 H   0  0  0  0  0  0  0  0  0  0  0  0
  2  3  1  0
  3  4  1  0
  4  5  1  0
  6  1  1  0
  6  7  1  0
  7  8  2  0
  7  9  1  0
  2 10  1  0
  6 10  1  0
  3 11  1  0
  4 12  1  0
  5 13  1  0
 14 13  1  1
 14 15  2  0
 14 16  2  0
 14 17  1  0
  1 18  1  0
  1 19  1  0
  2 20  1  0
  2 21  1  0
  3 22  1  6
  4 23  1  1
  5 24  1  0
  5 25  1  0
  6 26  1  1
  9 27  1  0
 10 28  1  0
 10 29  1  0
 11 30  1  0
 12 31  1  0
 12 32  1  0
 17 33  1  0
M  END
