5SB2_1K2_A_1006
     RDKit          3D

 30 34  0  0  0  0  0  0  0  0999 V2000
  -26.4971    4.1056   -5.8720 C   0  0  0  0  0  0  0  0  0  0  0  0
  -24.6022    1.6846   -1.8103 C   0  0  0  0  0  0  0  0  0  0  0  0
  -23.7612    2.5302   -2.2077 O   0  0  0  0  0  0  0  0  0  0  0  0
  -24.1059    0.3440   -1.5173 C   0  0  0  0  0  0  0  0  0  0  0  0
  -24.6418   -1.9533   -0.9386 C   0  0  0  0  0  0  0  0  0  0  0  0
  -23.2791   -2.2530   -0.9424 C   0  0  0  0  0  0  0  0  0  0  0  0
  -22.3478   -1.2758   -1.2274 C   0  0  0  0  0  0  0  0  0  0  0  0
  -20.8870   -1.5350   -1.2463 C   0  0  0  0  0  0  0  0  0  0  0  0
  -19.1275   -2.4550   -2.6465 C   0  0  0  0  0  0  0  0  0  0  0  0
  -18.2150   -1.9351   -1.7336 C   0  0  0  0  0  0  0  0  0  0  0  0
  -16.8836   -2.2101   -1.9677 C   0  0  0  0  0  0  0  0  0  0  0  0
  -16.4973   -2.9748   -3.0735 C   0  0  0  0  0  0  0  0  0  0  0  0
  -14.6879   -2.3899   -1.9391 C   0  0  0  0  0  0  0  0  0  0  0  0
  -15.7657   -1.8368   -1.2489 C   0  0  0  0  0  0  0  0  0  0  0  0
  -18.7357   -3.2065   -3.7315 C   0  0  0  0  0  0  0  0  0  0  0  0
  -25.9472    2.0594   -1.6700 N   0  0  0  0  0  0  0  0  0  0  0  0
  -26.5146    3.2738   -2.2635 C   0  0  1  0  0  0  0  0  0  0  0  0
  -27.1318    3.2075   -3.6088 C   0  0  1  0  0  0  0  0  0  0  0  0
  -27.9641    3.4308   -2.4174 C   0  0  0  0  0  0  0  0  0  0  0  0
  -26.7399    4.3091   -4.5279 C   0  0  0  0  0  0  0  0  0  0  0  0
  -26.6247    5.5722   -3.9777 C   0  0  0  0  0  0  0  0  0  0  0  0
  -26.2615    6.6664   -4.7657 C   0  0  0  0  0  0  0  0  0  0  0  0
  -26.0196    6.4589   -6.1089 C   0  0  0  0  0  0  0  0  0  0  0  0
  -26.1393    5.1848   -6.6475 C   0  0  0  0  0  0  0  0  0  0  0  0
  -25.0209   -0.6480   -1.2296 C   0  0  0  0  0  0  0  0  0  0  0  0
  -20.4867   -2.1921   -2.4344 O   0  0  0  0  0  0  0  0  0  0  0  0
  -15.1532   -3.0612   -3.0202 N   0  0  0  0  0  0  0  0  0  0  0  0
  -17.4347   -3.4604   -3.9378 N   0  0  0  0  0  0  0  0  0  0  0  0
  -22.7679    0.0160   -1.5129 C   0  0  0  0  0  0  0  0  0  0  0  0
  -25.8300   -3.1946   -0.5762 Cl  0  0  0  0  0  0  0  0  0  0  0  0
  2  3  2  0
  2  4  1  0
  5  6  2  0
  6  7  1  0
  7  8  1  0
  9 10  2  0
 10 11  1  0
 11 12  2  0
 11 14  1  0
 13 14  2  0
  9 15  1  0
  2 16  1  0
 17 16  1  1
 17 18  1  0
 19 17  1  6
 18 19  1  0
 18 20  1  6
  1 20  2  0
 20 21  1  0
 21 22  2  0
 22 23  1  0
 23 24  2  0
  1 24  1  0
  4 25  2  0
  5 25  1  0
  8 26  1  6
  9 26  1  0
 12 27  1  0
 13 27  1  0
 12 28  1  0
 15 28  2  0
  4 29  1  0
  7 29  2  0
  5 30  1  0
M  END
$$$$
