
     RDKit          3D

 21 24  0  0  0  0  0  0  0  0999 V2000
   20.0472   -7.8800  -23.6678 C   0  0  0  0  0  0  0  0  0  0  0  0
   21.1469   -8.0812  -24.7021 C   0  0  0  0  0  0  0  0  0  0  0  0
   21.8177   -6.7734  -25.0260 C   0  0  0  0  0  0  0  0  0  0  0  0
   22.9861   -6.7105  -25.4007 O   0  0  0  0  0  0  0  0  0  0  0  0
   21.0074   -5.5359  -24.9604 C   0  0  0  0  0  0  0  0  0  0  0  0
   19.7234   -5.5429  -24.5581 C   0  0  0  0  0  0  0  0  0  0  0  0
   18.9233   -4.2668  -24.6015 C   0  0  0  0  0  0  0  0  0  0  0  0
   18.3578   -3.9569  -23.2275 C   0  0  0  0  0  0  0  0  0  0  0  0
   17.4467   -5.0689  -22.6958 C   0  0  2  0  0  0  0  0  0  0  0  0
   18.1340   -6.4738  -22.7588 C   0  0  0  0  0  0  0  0  0  0  0  0
   18.9917   -6.7928  -24.0604 C   0  0  0  0  0  0  0  0  0  0  0  0
   17.1600   -7.6172  -22.3444 C   0  0  0  0  0  0  0  0  0  0  0  0
   15.7295   -7.5251  -22.9058 C   0  0  0  0  0  0  0  0  0  0  0  0
   15.1234   -6.1327  -22.7000 C   0  0  1  0  0  0  0  0  0  0  0  0
   16.0633   -5.0985  -23.3505 C   0  0  1  0  0  0  0  0  0  0  0  0
   15.2226   -3.8224  -23.3671 C   0  0  0  0  0  0  0  0  0  0  0  0
   13.7882   -4.3224  -23.6162 C   0  0  0  0  0  0  0  0  0  0  0  0
   13.8447   -5.8584  -23.5170 C   0  0  2  0  0  0  0  0  0  0  0  0
   12.6669   -6.3690  -22.9241 O   0  0  0  0  0  0  0  0  0  0  0  0
   14.8513   -5.9080  -21.1901 C   0  0  0  0  0  0  0  0  0  0  0  0
   18.1555   -7.3427  -25.2358 C   0  0  0  0  0  0  0  0  0  0  0  0
  1  2  1  0
  2  3  1  0
  3  4  2  0
  3  5  1  0
  5  6  2  0
  6  7  1  0
  7  8  1  0
  9  8  1  6
  9 10  1  0
  1 11  1  0
  6 11  1  0
 10 11  1  0
 10 12  1  0
 12 13  1  0
 13 14  1  0
  9 15  1  0
 14 15  1  0
 15 16  1  1
 16 17  1  0
 14 18  1  0
 17 18  1  0
 18 19  1  1
 14 20  1  1
 11 21  1  0
M  END
