7XFA_D9J_A_301
     RDKit          3D

 60 64  0  0  0  0  0  0  0  0999 V2000
  -20.3904   -6.0135   -2.7166 F   0  0  0  0  0  0  0  0  0  0  0  0
  -20.2314   -6.9541   -1.7161 C   0  0  2  0  0  0  0  0  0  0  0  0
  -21.0241   -6.6055   -0.6388 F   0  0  0  0  0  0  0  0  0  0  0  0
  -18.9139   -6.9324   -1.2915 F   0  0  0  0  0  0  0  0  0  0  0  0
  -20.6117   -8.3205   -2.2508 C   0  0  0  0  0  0  0  0  0  0  0  0
  -19.8404   -8.9017   -3.2760 C   0  0  0  0  0  0  0  0  0  0  0  0
  -20.1802  -10.1476   -3.8070 C   0  0  0  0  0  0  0  0  0  0  0  0
  -21.3082  -10.8235   -3.3426 C   0  0  0  0  0  0  0  0  0  0  0  0
  -21.7385  -12.3831   -4.0207 Cl  0  0  0  0  0  0  0  0  0  0  0  0
  -22.1019  -10.2517   -2.3471 C   0  0  0  0  0  0  0  0  0  0  0  0
  -21.7654   -9.0075   -1.7915 C   0  0  0  0  0  0  0  0  0  0  0  0
  -22.6074   -8.4481   -0.7719 N   0  0  0  0  0  0  0  0  0  0  0  0
  -23.3887   -7.4012   -0.9654 N   0  0  0  0  0  0  0  0  0  0  0  0
  -24.0296   -7.2083    0.2026 C   0  0  0  0  0  0  0  0  0  0  0  0
  -24.9777   -6.0842    0.4453 C   0  0  1  0  0  0  0  0  0  0  0  0
  -23.6714   -8.0998    1.1510 N   0  0  0  0  0  0  0  0  0  0  0  0
  -22.7688   -8.8652    0.5057 C   0  0  0  0  0  0  0  0  0  0  0  0
  -22.0794  -10.0605    1.1379 C   0  0  1  0  0  0  0  0  0  0  0  0
  -20.5154   -9.9528    1.1442 C   0  0  2  0  0  0  0  0  0  0  0  0
  -19.9291  -11.0967    0.5722 O   0  0  0  0  0  0  0  0  0  0  0  0
  -22.6721  -10.4006    2.3903 O   0  0  0  0  0  0  0  0  0  0  0  0
  -22.1892   -9.7292    3.5567 C   0  0  2  0  0  0  0  0  0  0  0  0
  -23.3269   -8.9520    4.2362 C   0  0  1  0  0  0  0  0  0  0  0  0
  -22.7975   -7.9430    5.0524 O   0  0  0  0  0  0  0  0  0  0  0  0
  -20.9029   -8.8849    3.3837 C   0  0  2  0  0  0  0  0  0  0  0  0
  -21.1804   -7.6534    2.7627 O   0  0  0  0  0  0  0  0  0  0  0  0
  -19.9259   -9.7030    2.5442 C   0  0  2  0  0  0  0  0  0  0  0  0
  -18.6070   -9.0614    2.4680 N   0  0  0  0  0  0  0  0  0  0  0  0
  -17.6994   -9.1457    1.4767 C   0  0  0  0  0  0  0  0  0  0  0  0
  -18.1055   -8.2941    3.4229 N   0  0  0  0  0  0  0  0  0  0  0  0
  -16.8946   -7.8713    3.0897 N   0  0  0  0  0  0  0  0  0  0  0  0
  -16.6137   -8.3916    1.8761 C   0  0  0  0  0  0  0  0  0  0  0  0
  -15.3430   -8.1754    1.1450 C   0  0  0  0  0  0  0  0  0  0  0  0
  -14.3939   -7.2377    1.5947 C   0  0  0  0  0  0  0  0  0  0  0  0
  -13.2011   -7.0424    0.8915 C   0  0  0  0  0  0  0  0  0  0  0  0
  -12.3006   -6.1328    1.3412 F   0  0  0  0  0  0  0  0  0  0  0  0
  -12.9402   -7.7804   -0.2688 C   0  0  0  0  0  0  0  0  0  0  0  0
  -11.4410   -7.5346   -1.1509 Cl  0  0  0  0  0  0  0  0  0  0  0  0
  -13.8779   -8.7144   -0.7246 C   0  0  0  0  0  0  0  0  0  0  0  0
  -13.6360   -9.4355   -1.8478 F   0  0  0  0  0  0  0  0  0  0  0  0
  -15.0717   -8.9099   -0.0231 C   0  0  0  0  0  0  0  0  0  0  0  0
  -18.9699   -8.3936   -3.6712 H   0  0  0  0  0  0  0  0  0  0  0  0
  -19.5688  -10.5828   -4.5877 H   0  0  0  0  0  0  0  0  0  0  0  0
  -22.9937  -10.7684   -2.0167 H   0  0  0  0  0  0  0  0  0  0  0  0
  -24.4693   -5.1207    0.2316 H   0  0  0  0  0  0  0  0  0  0  0  0
  -25.8627   -6.1876   -0.2175 H   0  0  0  0  0  0  0  0  0  0  0  0
  -25.3163   -6.0923    1.5032 H   0  0  0  0  0  0  0  0  0  0  0  0
  -22.3357  -10.9056    0.4667 H   0  0  0  0  0  0  0  0  0  0  0  0
  -20.2224   -9.0977    0.5035 H   0  0  0  0  0  0  0  0  0  0  0  0
  -20.3245  -11.8903    1.0191 H   0  0  0  0  0  0  0  0  0  0  0  0
  -21.9221  -10.5406    4.2709 H   0  0  0  0  0  0  0  0  0  0  0  0
  -24.0046   -8.5008    3.4823 H   0  0  0  0  0  0  0  0  0  0  0  0
  -23.9215   -9.6553    4.8617 H   0  0  0  0  0  0  0  0  0  0  0  0
  -23.5139   -7.2633    5.1509 H   0  0  0  0  0  0  0  0  0  0  0  0
  -20.4398   -8.7156    4.3859 H   0  0  0  0  0  0  0  0  0  0  0  0
  -21.7232   -7.1197    3.3997 H   0  0  0  0  0  0  0  0  0  0  0  0
  -19.7966  -10.6862    3.0539 H   0  0  0  0  0  0  0  0  0  0  0  0
  -17.8202   -9.7046    0.5614 H   0  0  0  0  0  0  0  0  0  0  0  0
  -14.5692   -6.6498    2.4853 H   0  0  0  0  0  0  0  0  0  0  0  0
  -15.7827   -9.6379   -0.3938 H   0  0  0  0  0  0  0  0  0  0  0  0
  2  1  1  6
  2  3  1  0
  2  4  1  0
  2  5  1  0
  5  6  2  0
  6  7  1  0
  7  8  2  0
  8  9  1  0
  8 10  1  0
 10 11  2  0
  5 11  1  0
 11 12  1  0
 12 13  1  0
 13 14  2  0
 14 15  1  0
 14 16  1  0
 16 17  2  0
 12 17  1  0
 18 17  1  0
 18 19  1  0
 19 20  1  0
 18 21  1  0
 21 22  1  0
 22 23  1  0
 23 24  1  0
 22 25  1  0
 25 26  1  0
 25 27  1  0
 19 27  1  0
 27 28  1  0
 28 29  1  0
 28 30  1  0
 30 31  2  0
 29 32  2  0
 31 32  1  0
 32 33  1  0
 33 34  2  0
 34 35  1  0
 35 36  1  0
 35 37  2  0
 37 38  1  0
 37 39  1  0
 39 40  1  0
 39 41  2  0
 33 41  1  0
  6 42  1  0
  7 43  1  0
 10 44  1  0
 15 45  1  6
 15 46  1  0
 15 47  1  0
 18 48  1  6
 19 49  1  6
 20 50  1  0
 22 51  1  1
 23 52  1  6
 23 53  1  0
 24 54  1  0
 25 55  1  1
 26 56  1  0
 27 57  1  1
 29 58  1  0
 34 59  1  0
 41 60  1  0
M  END
