7EBG_J0L_A_502
     RDKit          3D

 14 15  0  0  0  0  0  0  0  0999 V2000
    0.7602    1.7305   18.3048 C   0  0  0  0  0  0  0  0  0  0  0  0
   -0.4200    1.3276   17.6480 C   0  0  0  0  0  0  0  0  0  0  0  0
   -0.4108    0.9943   16.2962 C   0  0  0  0  0  0  0  0  0  0  0  0
    1.9866    1.8180   17.6388 C   0  0  0  0  0  0  0  0  0  0  0  0
    1.9512    1.4774   16.2875 C   0  0  0  0  0  0  0  0  0  0  0  0
    0.7907    1.0736   15.6223 C   0  0  0  0  0  0  0  0  0  0  0  0
    1.1059    0.7824   14.1741 C   0  0  1  0  0  0  0  0  0  0  0  0
    2.6199    1.0768   14.1199 C   0  0  0  0  0  0  0  0  0  0  0  0
    0.8393   -0.6777   13.8066 C   0  0  0  0  0  0  0  0  0  0  0  0
    0.3739    1.7403   13.2376 C   0  0  0  0  0  0  0  0  0  0  0  0
    3.2835    2.5837   19.6365 C   0  0  0  0  0  0  0  0  0  0  0  0
    3.1564    2.2119   18.2484 N   0  0  0  0  0  0  0  0  0  0  0  0
    3.0140    1.4711   15.3871 N   0  0  0  0  0  0  0  0  0  0  0  0
    3.3583    0.9914   13.1532 O   0  0  0  0  0  0  0  0  0  0  0  0
  1  2  2  0
  2  3  1  0
  1  4  1  0
  4  5  2  0
  3  6  2  0
  5  6  1  0
  6  7  1  0
  7  8  1  0
  7  9  1  6
  7 10  1  0
 11 12  1  0
  4 12  1  0
  5 13  1  0
  8 13  1  0
  8 14  2  0
M  END
