7M3H_YPV_A_501
     RDKit          3D

 24 25  0  0  0  0  0  0  0  0999 V2000
  -20.6780  -19.3416   35.7842 C   0  0  0  0  0  0  0  0  0  0  0  0
  -20.9218  -20.2242   34.7383 C   0  0  0  0  0  0  0  0  0  0  0  0
  -22.1880  -20.6713   34.4236 C   0  0  0  0  0  0  0  0  0  0  0  0
  -17.4605  -17.7350   33.4999 C   0  0  0  0  0  0  0  0  0  0  0  0
  -16.8300  -15.7389   32.2666 C   0  0  0  0  0  0  0  0  0  0  0  0
  -17.3324  -17.1093   32.2831 C   0  0  0  0  0  0  0  0  0  0  0  0
  -17.6788  -17.7867   31.1222 C   0  0  0  0  0  0  0  0  0  0  0  0
  -18.1422  -19.0784   31.2590 C   0  0  0  0  0  0  0  0  0  0  0  0
  -18.2745  -19.7151   32.4735 C   0  0  0  0  0  0  0  0  0  0  0  0
  -17.9327  -19.0466   33.6195 C   0  0  0  0  0  0  0  0  0  0  0  0
  -23.2555  -20.2250   35.1765 C   0  0  0  0  0  0  0  0  0  0  0  0
  -24.6643  -20.6620   34.9012 C   0  0  0  0  0  0  0  0  0  0  0  0
  -25.2954  -19.6344   34.0281 C   0  0  0  0  0  0  0  0  0  0  0  0
  -26.6347  -20.0556   33.4787 C   0  0  0  0  0  0  0  0  0  0  0  0
  -27.7771  -19.2907   34.0552 C   0  0  0  0  0  0  0  0  0  0  0  0
  -23.0383  -19.3489   36.2194 C   0  0  0  0  0  0  0  0  0  0  0  0
  -21.7658  -18.9148   36.5169 C   0  0  0  0  0  0  0  0  0  0  0  0
  -19.3446  -18.9232   36.0509 N   0  0  0  0  0  0  0  0  0  0  0  0
  -16.8302  -14.9706   31.1084 O   0  0  0  0  0  0  0  0  0  0  0  0
  -17.5474  -17.1496   29.8944 O   0  0  0  0  0  0  0  0  0  0  0  0
  -18.2845  -21.1890   35.1207 O   0  0  0  0  0  0  0  0  0  0  0  0
  -16.7573  -19.5061   35.9712 O   0  0  0  0  0  0  0  0  0  0  0  0
  -16.3662  -15.1726   33.3036 O   0  0  0  0  0  0  0  0  0  0  0  0
  -18.0488  -19.7272   35.2197 S   0  0  1  0  0  0  0  0  0  0  0  0
  1  2  2  0
  2  3  1  0
  4  6  2  0
  5  6  1  0
  6  7  1  0
  7  8  2  0
  8  9  1  0
  4 10  1  0
  9 10  2  0
  3 11  2  0
 11 12  1  0
 12 13  1  0
 13 14  1  0
 14 15  1  0
 11 16  1  0
 16 17  2  0
  1 17  1  0
  1 18  1  0
  5 19  1  0
  7 20  1  0
  5 23  2  0
 21 24  2  0
 22 24  2  0
 24 18  1  1
 10 24  1  0
M  END
$$$$
