7XIJ_EJ3_A_1201
     RDKit          3D

 52 55  0  0  0  0  0  0  0  0999 V2000
   -2.7622   -6.1769   -5.2119 C   0  0  0  0  0  0  0  0  0  0  0  0
   -2.0246   -5.2145   -4.3322 C   0  0  0  0  0  0  0  0  0  0  0  0
   -2.4618   -5.0024   -3.1702 O   0  0  0  0  0  0  0  0  0  0  0  0
   -0.8102   -4.5818   -4.7856 N   0  0  0  0  0  4  0  0  0  0  0  0
   -0.6970   -3.8053   -5.8916 C   0  0  0  0  0  0  0  0  0  0  0  0
    0.4322   -4.6455   -4.2470 C   0  0  0  0  0  0  0  0  0  0  0  0
    0.8504   -5.3194   -3.0925 C   0  0  0  0  0  0  0  0  0  0  0  0
    2.2097   -5.2640   -2.7421 C   0  0  0  0  0  0  0  0  0  0  0  0
    3.1367   -4.5476   -3.5430 C   0  0  0  0  0  0  0  0  0  0  0  0
    4.5036   -4.4872   -3.2341 O   0  0  0  0  0  0  0  0  0  0  0  0
    5.5370   -5.0242   -4.0532 C   0  0  0  0  0  0  0  0  0  0  0  0
    2.6853   -3.8712   -4.6899 C   0  0  0  0  0  0  0  0  0  0  0  0
    1.3245   -3.9200   -5.0035 C   0  0  0  0  0  0  0  0  0  0  0  0
    0.6111   -3.3679   -6.0540 C   0  0  0  0  0  0  0  0  0  0  0  0
    1.0961   -2.5032   -7.1449 C   0  0  0  0  0  0  0  0  0  0  0  0
    0.2586   -1.9359   -7.8980 O   0  0  0  0  0  0  0  0  0  0  0  0
    2.4975   -2.2453   -7.3103 N   0  0  0  0  0  0  0  0  0  0  0  0
    3.4926   -2.6698   -6.3646 C   0  0  0  0  0  0  0  0  0  0  0  0
    3.2909   -3.7992   -5.5494 C   0  0  0  0  0  0  0  0  0  0  0  0
    2.1355   -4.5033   -5.6581 F   0  0  0  0  0  0  0  0  0  0  0  0
    4.6631   -1.9145   -6.2223 C   0  0  0  0  0  0  0  0  0  0  0  0
    5.6596   -2.2973   -5.3111 C   0  0  0  0  0  0  0  0  0  0  0  0
    6.9030   -1.5049   -5.1779 C   0  0  0  0  0  0  0  0  0  0  0  0
    7.8133   -1.4435   -6.2300 O   0  0  0  0  0  0  0  0  0  0  0  0
    7.1502   -0.8781   -4.1121 O   0  0  0  0  0  0  0  0  0  0  0  0
    5.4614   -3.4421   -4.5231 C   0  0  0  0  0  0  0  0  0  0  0  0
    4.2775   -4.1935   -4.6235 C   0  0  0  0  0  0  0  0  0  0  0  0
    4.0873   -5.3811   -3.7548 C   0  0  0  0  0  0  0  0  0  0  0  0
    2.8975   -5.9586   -3.3495 C   0  0  0  0  0  0  0  0  0  0  0  0
    5.0739   -6.1293   -3.1297 C   0  0  0  0  0  0  0  0  0  0  0  0
    4.5009   -7.1038   -2.3970 N   0  0  0  0  0  0  0  0  0  0  0  0
    3.1906   -6.9984   -2.5478 N   0  0  0  0  0  4  0  0  0  0  0  0
    2.2236   -7.8296   -1.8445 C   0  0  0  0  0  0  0  0  0  0  0  0
   -2.8990   -5.7359   -6.2213 H   0  0  0  0  0  0  0  0  0  0  0  0
   -3.7635   -6.4037   -4.7878 H   0  0  0  0  0  0  0  0  0  0  0  0
   -2.1858   -7.1215   -5.2957 H   0  0  0  0  0  0  0  0  0  0  0  0
   -1.5172   -3.5633   -6.5558 H   0  0  0  0  0  0  0  0  0  0  0  0
    0.1666   -5.8699   -2.4652 H   0  0  0  0  0  0  0  0  0  0  0  0
    2.5328   -5.7857   -1.8518 H   0  0  0  0  0  0  0  0  0  0  0  0
    5.5292   -4.5327   -5.0490 H   0  0  0  0  0  0  0  0  0  0  0  0
    6.5176   -4.8337   -3.5709 H   0  0  0  0  0  0  0  0  0  0  0  0
    5.4035   -6.1208   -4.1664 H   0  0  0  0  0  0  0  0  0  0  0  0
    3.3905   -3.3439   -5.3164 H   0  0  0  0  0  0  0  0  0  0  0  0
    2.8201   -1.8930   -8.2399 H   0  0  0  0  0  0  0  0  0  0  0  0
    4.7986   -1.0351   -6.8402 H   0  0  0  0  0  0  0  0  0  0  0  0
    8.6670   -0.9042   -6.1489 H   0  0  0  0  0  0  0  0  0  0  0  0
    6.2200   -3.7341   -3.8080 H   0  0  0  0  0  0  0  0  0  0  0  0
    1.8938   -5.6290   -3.5838 H   0  0  0  0  0  0  0  0  0  0  0  0
    6.1425   -5.9781   -3.2022 H   0  0  0  0  0  0  0  0  0  0  0  0
    1.9004   -7.3171   -0.9145 H   0  0  0  0  0  0  0  0  0  0  0  0
    1.3382   -8.0133   -2.4895 H   0  0  0  0  0  0  0  0  0  0  0  0
    2.6816   -8.8067   -1.5824 H   0  0  0  0  0  0  0  0  0  0  0  0
  1  2  1  0
  2  3  2  0
  2  4  1  0
  4  5  4  0
  4  6  4  0
  6  7  4  0
  7  8  4  0
  8  9  4  0
  9 10  1  0
 10 11  1  0
  9 12  4  0
  6 13  4  0
 12 13  4  0
  5 14  4  0
 13 14  4  0
 14 15  1  0
 15 16  2  0
 15 17  1  0
 17 18  1  0
 18 19  4  0
 19 20  1  0
 18 21  4  0
 21 22  4  0
 22 23  1  0
 23 24  1  0
 23 25  2  0
 22 26  4  0
 26 27  4  0
 19 27  4  0
 27 28  1  0
 28 29  4  0
 28 30  4  0
 30 31  4  0
 31 32  4  0
 29 32  4  0
 32 33  1  0
  1 34  1  0
  1 35  1  0
  1 36  1  0
  5 37  1  0
  7 38  1  0
  8 39  1  0
 11 40  1  0
 11 41  1  0
 11 42  1  0
 12 43  1  0
 17 44  1  0
 21 45  1  0
 24 46  1  0
 26 47  1  0
 29 48  1  0
 30 49  1  0
 33 50  1  0
 33 51  1  0
 33 52  1  0
M  CHG  2   4   1  32   1
M  END
