7Z7F_IF3_A_606
     RDKit          3D

 26 27  0  0  0  0  0  0  0  0999 V2000
   -2.3632    0.7301   -2.8932 C   0  0  0  0  0  0  0  0  0  0  0  0
    3.7131   -1.0529   -1.2065 C   0  0  0  0  0  0  0  0  0  0  0  0
    1.4660   -0.6498   -0.1275 C   0  0  0  0  0  0  0  0  0  0  0  0
    0.6478   -0.6060    0.9957 C   0  0  0  0  0  0  0  0  0  0  0  0
   -0.6532   -0.2597    0.8707 C   0  0  0  0  0  0  0  0  0  0  0  0
   -0.4239    0.0213   -1.4367 C   0  0  0  0  0  0  0  0  0  0  0  0
   -0.2345   -0.6206    2.9196 C   0  0  0  0  0  0  0  0  0  0  0  0
   -2.5961    0.1241    2.4184 C   0  0  0  0  0  0  0  0  0  0  0  0
    2.8507   -1.0085   -0.0325 N   0  0  0  0  0  0  0  0  0  0  0  0
   -1.2148    0.0614   -0.3191 N   0  0  0  0  0  0  0  0  0  0  0  0
    0.8991   -0.3317   -1.3317 N   0  0  0  0  0  0  0  0  0  0  0  0
   -0.9674    0.3477   -2.7200 N   0  0  0  0  0  0  0  0  0  0  0  0
   -1.2377   -0.2757    2.0732 N   0  0  0  0  0  0  0  0  0  0  0  0
    0.9513   -0.8419    2.2868 N   0  0  0  0  0  0  0  0  0  0  0  0
   -2.5670    0.9384   -3.9647 H   0  0  0  0  0  0  0  0  0  0  0  0
   -2.5793    1.6449   -2.3021 H   0  0  0  0  0  0  0  0  0  0  0  0
   -3.0246   -0.0957   -2.5559 H   0  0  0  0  0  0  0  0  0  0  0  0
    3.3199   -1.7932   -1.9347 H   0  0  0  0  0  0  0  0  0  0  0  0
    4.7403   -1.3523   -0.9094 H   0  0  0  0  0  0  0  0  0  0  0  0
    3.7547   -0.0500   -1.6813 H   0  0  0  0  0  0  0  0  0  0  0  0
   -0.3568   -0.7004    3.9921 H   0  0  0  0  0  0  0  0  0  0  0  0
   -2.9045   -0.3556    3.3714 H   0  0  0  0  0  0  0  0  0  0  0  0
   -2.6404    1.2272    2.5335 H   0  0  0  0  0  0  0  0  0  0  0  0
   -3.3001   -0.1899    1.6190 H   0  0  0  0  0  0  0  0  0  0  0  0
    3.2611   -1.2464    0.8989 H   0  0  0  0  0  0  0  0  0  0  0  0
   -0.3456    0.3111   -3.5591 H   0  0  0  0  0  0  0  0  0  0  0  0
  3  4  2  0
  4  5  1  0
  2  9  1  0
  3  9  1  0
  5 10  2  0
  6 10  1  0
  3 11  1  0
  6 11  2  0
  6 12  1  0
  1 12  1  0
  7 13  1  0
  5 13  1  0
  8 13  1  0
  7 14  2  0
  4 14  1  0
  1 15  1  0
  1 16  1  0
  1 17  1  0
  2 18  1  0
  2 19  1  0
  2 20  1  0
  7 21  1  0
  8 22  1  0
  8 23  1  0
  8 24  1  0
  9 25  1  0
 12 26  1  0
M  END
