6M2B_EZO_A_403
     RDKit          3D

 39 41  0  0  0  0  0  0  0  0999 V2000
    2.4080    0.3536    4.4170 C   0  0  0  0  0  0  0  0  0  0  0  0
    1.2325    0.6007    3.7127 C   0  0  0  0  0  0  0  0  0  0  0  0
    1.1992    0.4381    2.3275 C   0  0  0  0  0  0  0  0  0  0  0  0
    2.3456    0.0184    1.6222 C   0  0  0  0  0  0  0  0  0  0  0  0
    3.5350   -0.2669    2.3475 C   0  0  0  0  0  0  0  0  0  0  0  0
    3.5508   -0.0755    3.7419 C   0  0  0  0  0  0  0  0  0  0  0  0
    4.7548   -0.8070    1.7025 C   0  0  0  0  0  0  0  0  0  0  0  0
    2.2996   -0.0401    0.1411 C   0  0  0  0  0  0  0  0  0  0  0  0
   -0.2999   -0.4667   -2.3915 C   0  0  0  0  0  0  0  0  0  0  0  0
    4.6582   -1.7011    0.6398 O   0  0  0  0  0  0  0  0  0  0  0  0
    5.8931   -0.4988    2.1485 O   0  0  0  0  0  0  0  0  0  0  0  0
    1.1601   -0.1045   -0.4818 N   0  0  0  0  0  0  0  0  0  0  0  0
    1.0054   -0.1429   -1.8839 N   0  0  0  0  0  0  0  0  0  0  0  0
   -1.3718   -0.6397   -1.5884 N   0  0  0  0  0  0  0  0  0  0  0  0
   -2.4993   -0.9470   -2.2872 C   0  0  0  0  0  0  0  0  0  0  0  0
   -2.3191   -1.0340   -3.6699 C   0  0  0  0  0  0  0  0  0  0  0  0
   -0.7052   -0.7052   -4.0092 S   0  0  0  0  0  0  0  0  0  0  0  0
   -3.7981   -1.1987   -1.6139 C   0  0  0  0  0  0  0  0  0  0  0  0
   -4.1825   -0.4995   -0.4429 C   0  0  0  0  0  0  0  0  0  0  0  0
   -5.4092   -0.7853    0.1703 C   0  0  0  0  0  0  0  0  0  0  0  0
   -6.2590   -1.7547   -0.3635 C   0  0  0  0  0  0  0  0  0  0  0  0
   -5.8915   -2.4452   -1.5176 C   0  0  0  0  0  0  0  0  0  0  0  0
   -4.6716   -2.1708   -2.1400 C   0  0  0  0  0  0  0  0  0  0  0  0
   -3.2004    0.7832    0.2609 Cl  0  0  0  0  0  0  0  0  0  0  0  0
    2.1394    0.0852   -2.7895 C   0  0  0  0  0  0  0  0  0  0  0  0
    2.4321    0.4860    5.4910 H   0  0  0  0  0  0  0  0  0  0  0  0
    0.3467    0.9312    4.2397 H   0  0  0  0  0  0  0  0  0  0  0  0
    0.2785    0.6671    1.8049 H   0  0  0  0  0  0  0  0  0  0  0  0
    4.4450   -0.2851    4.3165 H   0  0  0  0  0  0  0  0  0  0  0  0
    3.2241   -0.0217   -0.4160 H   0  0  0  0  0  0  0  0  0  0  0  0
    5.4888   -2.0861    0.2063 H   0  0  0  0  0  0  0  0  0  0  0  0
   -3.0807   -1.2591   -4.4044 H   0  0  0  0  0  0  0  0  0  0  0  0
   -5.7098   -0.2483    1.0611 H   0  0  0  0  0  0  0  0  0  0  0  0
   -7.2051   -1.9688    0.1167 H   0  0  0  0  0  0  0  0  0  0  0  0
   -6.5509   -3.1985   -1.9291 H   0  0  0  0  0  0  0  0  0  0  0  0
   -4.4031   -2.7367   -3.0230 H   0  0  0  0  0  0  0  0  0  0  0  0
    2.7259    0.9646   -2.4505 H   0  0  0  0  0  0  0  0  0  0  0  0
    1.8034    0.3086   -3.8220 H   0  0  0  0  0  0  0  0  0  0  0  0
    2.7893   -0.8144   -2.8074 H   0  0  0  0  0  0  0  0  0  0  0  0
  1  2  2  0
  2  3  1  0
  3  4  2  0
  4  5  1  0
  1  6  1  0
  5  6  2  0
  5  7  1  0
  4  8  1  0
  7 10  1  0
  7 11  2  0
  8 12  2  0
  9 13  1  0
 12 13  1  0
  9 14  2  0
 14 15  1  0
 15 16  2  0
 16 17  1  0
  9 17  1  0
 15 18  1  0
 18 19  2  0
 19 20  1  0
 20 21  2  0
 21 22  1  0
 22 23  2  0
 18 23  1  0
 19 24  1  0
 13 25  1  0
  1 26  1  0
  2 27  1  0
  3 28  1  0
  6 29  1  0
  8 30  1  0
 10 31  1  0
 16 32  1  0
 20 33  1  0
 21 34  1  0
 22 35  1  0
 23 36  1  0
 25 37  1  0
 25 38  1  0
 25 39  1  0
M  END
