7X5N_5M5_B_501
     RDKit          3D

 54 57  0  0  0  0  0  0  0  0999 V2000
   81.3233   53.5531   54.1766 C   0  0  0  0  0  0  0  0  0  0  0  0
   81.6259   52.2372   53.4460 C   0  0  0  0  0  0  0  0  0  0  0  0
   82.9068   51.8450   53.0741 C   0  0  0  0  0  0  0  0  0  0  0  0
   78.2771   50.1232   51.7332 C   0  0  1  0  0  0  0  0  0  0  0  0
   77.6455   50.9760   52.8458 C   0  0  0  0  0  0  0  0  0  0  0  0
   78.5752   51.0442   50.5394 C   0  0  0  0  0  0  0  0  0  0  0  0
   80.5541   51.4166   53.1446 C   0  0  0  0  0  0  0  0  0  0  0  0
   83.0798   50.6480   52.3855 C   0  0  0  0  0  0  0  0  0  0  0  0
   84.4748   50.1751   51.9728 C   0  0  0  0  0  0  0  0  0  0  0  0
   85.5177   50.4016   52.7304 C   0  0  0  0  0  0  0  0  0  0  0  0
   86.8925   49.9001   52.2909 C   0  0  0  0  0  0  0  0  0  0  0  0
   87.0358   49.2420   51.1612 C   0  0  0  0  0  0  0  0  0  0  0  0
   85.8207   48.9730   50.2857 C   0  0  0  0  0  0  0  0  0  0  0  0
   84.6405   49.4116   50.6666 C   0  0  0  0  0  0  0  0  0  0  0  0
   81.9954   49.8338   52.0862 C   0  0  0  0  0  0  0  0  0  0  0  0
   80.7167   50.2235   52.4524 C   0  0  0  0  0  0  0  0  0  0  0  0
   79.5426   49.3249   52.1361 C   0  0  2  0  0  0  0  0  0  0  0  0
   79.9211   48.2413   51.0650 C   0  0  0  0  0  0  0  0  0  0  0  0
   80.5456   48.1923   49.8946 C   0  0  0  0  0  0  0  0  0  0  0  0
   81.1714   49.3586   49.1155 C   0  0  0  0  0  0  0  0  0  0  0  0
   79.5268   46.8325   51.3731 C   0  0  0  0  0  0  0  0  0  0  0  0
   78.9564   47.1476   53.5491 C   0  0  0  0  0  0  0  0  0  0  0  0
   79.1798   48.6024   53.4611 C   0  0  0  0  0  0  0  0  0  0  0  0
   79.3185   49.3783   54.7598 C   0  0  0  0  0  0  0  0  0  0  0  0
   80.6026   46.9722   49.4090 N   0  0  0  0  0  0  0  0  0  0  0  0
   80.0099   46.0718   50.2694 N   0  0  0  0  0  4  0  0  0  0  0  0
   78.2391   46.6434   54.7007 N   0  0  0  0  0  0  0  0  0  0  0  0
   79.3499   49.9686   55.7171 N   0  0  0  0  0  0  0  0  0  0  0  0
   82.3905   53.9802   54.9557 O   0  0  0  0  0  0  0  0  0  0  0  0
   78.8670   46.4049   52.4694 O   0  0  0  0  0  0  0  0  0  0  0  0
   81.1037   54.3075   53.4502 H   0  0  0  0  0  0  0  0  0  0  0  0
   80.4906   53.3827   54.8267 H   0  0  0  0  0  0  0  0  0  0  0  0
   83.7209   52.4353   53.3063 H   0  0  0  0  0  0  0  0  0  0  0  0
   77.5641   49.3641   51.4874 H   0  0  0  0  0  0  0  0  0  0  0  0
   78.3241   51.7536   53.1278 H   0  0  0  0  0  0  0  0  0  0  0  0
   76.7345   51.4095   52.4892 H   0  0  0  0  0  0  0  0  0  0  0  0
   77.4382   50.3583   53.6945 H   0  0  0  0  0  0  0  0  0  0  0  0
   79.2904   51.7851   50.8304 H   0  0  0  0  0  0  0  0  0  0  0  0
   78.9707   50.4645   49.7317 H   0  0  0  0  0  0  0  0  0  0  0  0
   77.6721   51.5244   50.2251 H   0  0  0  0  0  0  0  0  0  0  0  0
   79.6071   51.6987   53.4424 H   0  0  0  0  0  0  0  0  0  0  0  0
   85.4121   50.9157   53.6190 H   0  0  0  0  0  0  0  0  0  0  0  0
   87.7163   50.0794   52.8861 H   0  0  0  0  0  0  0  0  0  0  0  0
   87.9684   48.9096   50.8698 H   0  0  0  0  0  0  0  0  0  0  0  0
   85.9215   48.4511   49.4011 H   0  0  0  0  0  0  0  0  0  0  0  0
   83.8158   49.2357   50.0717 H   0  0  0  0  0  0  0  0  0  0  0  0
   82.1415   48.9397   51.5918 H   0  0  0  0  0  0  0  0  0  0  0  0
   81.0289   50.2686   49.6602 H   0  0  0  0  0  0  0  0  0  0  0  0
   82.2185   49.1804   48.9865 H   0  0  0  0  0  0  0  0  0  0  0  0
   80.7027   49.4396   48.1570 H   0  0  0  0  0  0  0  0  0  0  0  0
   79.9355   45.0979   50.1456 H   0  0  0  0  0  0  0  0  0  0  0  0
   78.2566   47.1428   55.5490 H   0  0  0  0  0  0  0  0  0  0  0  0
   77.7337   45.8010   54.6357 H   0  0  0  0  0  0  0  0  0  0  0  0
   83.1606   54.1421   54.3885 H   0  0  0  0  0  0  0  0  0  0  0  0
  1  2  1  0
  2  3  4  0
  4  5  1  0
  4  6  1  0
  2  7  4  0
  3  8  4  0
  8  9  1  0
  9 10  4  0
 10 11  4  0
 11 12  4  0
 12 13  4  0
  9 14  4  0
 13 14  4  0
  8 15  4  0
 15 16  4  0
  7 16  4  0
 17  4  1  0
 17 16  1  6
 17 18  1  0
 18 19  4  0
 19 20  1  0
 18 21  4  0
 22 23  2  0
 17 23  1  0
 23 24  1  0
 19 25  4  0
 21 26  4  0
 25 26  4  0
 22 27  1  0
 24 28  3  0
  1 29  1  0
 22 30  1  0
 21 30  1  0
  1 31  1  0
  1 32  1  0
  3 33  1  0
  4 34  1  1
  5 35  1  0
  5 36  1  0
  5 37  1  0
  6 38  1  0
  6 39  1  0
  6 40  1  0
  7 41  1  0
 10 42  1  0
 11 43  1  0
 12 44  1  0
 13 45  1  0
 14 46  1  0
 15 47  1  0
 20 48  1  0
 20 49  1  0
 20 50  1  0
 26 51  1  0
 27 52  1  0
 27 53  1  0
 29 54  1  0
M  CHG  1  26   1
M  END
