8ACL_LQL_A_401
     RDKit          3D

 51 54  0  0  0  0  0  0  0  0999 V2000
    8.7906    2.3229   23.0306 N   0  0  0  0  0  0  0  0  0  0  0  0
    7.8157    0.9176   27.4242 N   0  0  0  0  0  0  0  0  0  0  0  0
    9.0370   -0.5351   17.6100 C   0  0  0  0  0  0  0  0  0  0  0  0
    8.9734    0.0592   16.4020 C   0  0  0  0  0  0  0  0  0  0  0  0
    8.8028    2.3588   20.6017 C   0  0  1  0  0  0  0  0  0  0  0  0
    8.9157    3.2016   21.8755 C   0  0  0  0  0  0  0  0  0  0  0  0
    9.8219    1.2914   23.0366 C   0  0  0  0  0  0  0  0  0  0  0  0
    9.9817    0.5762   19.3923 C   0  0  0  0  0  0  0  0  0  0  0  0
   10.3250   -0.8778   17.0525 C   0  0  0  0  0  0  0  0  0  0  0  0
   11.0771   -0.2529   19.2407 C   0  0  0  0  0  0  0  0  0  0  0  0
    7.8575    1.3277   25.0596 C   0  0  0  0  0  0  0  0  0  0  0  0
    7.7720   -0.9168   25.8885 C   0  0  0  0  0  0  0  0  0  0  0  0
    7.8245   -0.0377   24.8193 C   0  0  0  0  0  0  0  0  0  0  0  0
   10.1748    3.5531   18.9956 N   0  0  0  0  0  0  0  0  0  0  0  0
    8.9300    3.3259   19.4290 C   0  0  0  0  0  0  0  0  0  0  0  0
    7.9331    3.8833   18.9770 O   0  0  0  0  0  0  0  0  0  0  0  0
   11.0637    2.4747   18.6417 C   0  0  0  0  0  0  0  0  0  0  0  0
    9.0287    0.6690   18.3569 C   0  0  0  0  0  0  0  0  0  0  0  0
    9.2127   -0.0690   17.1988 C   0  0  0  0  0  0  0  0  0  0  0  0
   11.2509   -0.9791   18.0775 C   0  0  0  0  0  0  0  0  0  0  0  0
    7.8184    2.3429   23.9583 C   0  0  0  0  0  0  0  0  0  0  0  0
    7.8637    1.7502   26.3759 C   0  0  0  0  0  0  0  0  0  0  0  0
    7.7576   -0.3980   27.1644 C   0  0  0  0  0  0  0  0  0  0  0  0
   10.2831    1.3785   17.9852 C   0  0  0  0  0  0  0  0  0  0  0  0
    9.7919    0.2119   18.5459 C   0  0  0  0  0  0  0  0  0  0  0  0
    9.7218    0.4686   21.7810 C   0  0  0  0  0  0  0  0  0  0  0  0
    9.8228    1.3085   20.5836 N   0  0  0  0  0  0  0  0  0  0  0  0
    6.9453    3.1924   23.9517 O   0  0  0  0  0  0  0  0  0  0  0  0
    9.8226    1.5212   16.3625 S   0  0  0  0  0  0  0  0  0  0  0  0
    7.9974    0.0174   15.9411 Cl  0  0  0  0  0  0  0  0  0  0  0  0
   10.6200   -1.7439   15.5829 Cl  0  0  0  0  0  0  0  0  0  0  0  0
    8.5847   -1.4365   17.8288 H   0  0  0  0  0  0  0  0  0  0  0  0
    8.4649   -0.3327   15.5941 H   0  0  0  0  0  0  0  0  0  0  0  0
    7.8653    1.8460   20.5464 H   0  0  0  0  0  0  0  0  0  0  0  0
    9.8658    3.6933   21.8986 H   0  0  0  0  0  0  0  0  0  0  0  0
    8.1412    3.9395   21.8937 H   0  0  0  0  0  0  0  0  0  0  0  0
    9.6872    0.6583   23.8886 H   0  0  0  0  0  0  0  0  0  0  0  0
   10.7858    1.7537   23.0819 H   0  0  0  0  0  0  0  0  0  0  0  0
   11.7702   -0.3305   20.0015 H   0  0  0  0  0  0  0  0  0  0  0  0
    7.7443   -1.9366   25.7329 H   0  0  0  0  0  0  0  0  0  0  0  0
    7.8389   -0.3960   23.8516 H   0  0  0  0  0  0  0  0  0  0  0  0
   10.4925    4.4815   18.9160 H   0  0  0  0  0  0  0  0  0  0  0  0
   11.5352    2.0970   19.5248 H   0  0  0  0  0  0  0  0  0  0  0  0
   11.8099    2.8355   17.9650 H   0  0  0  0  0  0  0  0  0  0  0  0
    8.2034    1.2799   18.4606 H   0  0  0  0  0  0  0  0  0  0  0  0
   12.0709   -1.5970   17.9728 H   0  0  0  0  0  0  0  0  0  0  0  0
    7.9079    2.7643   26.5614 H   0  0  0  0  0  0  0  0  0  0  0  0
    7.6993   -1.0530   27.9598 H   0  0  0  0  0  0  0  0  0  0  0  0
    9.9555   -0.0769   19.5231 H   0  0  0  0  0  0  0  0  0  0  0  0
    8.7802   -0.0397   21.7718 H   0  0  0  0  0  0  0  0  0  0  0  0
   10.5305   -0.2319   21.7711 H   0  0  0  0  0  0  0  0  0  0  0  0
  3  4  4  0
  1  6  1  0
  5  6  1  0
  1  7  1  0
  8 10  4  0
 12 13  4  0
 11 13  4  0
  5 15  1  0
 14 15  1  0
 15 16  2  0
 14 17  1  0
  8 18  4  0
 18 19  4  0
  9 19  4  0
 10 20  4  0
  9 20  4  0
 11 21  1  0
  1 21  1  0
  2 22  4  0
 11 22  4  0
 12 23  4  0
  2 23  4  0
 17 24  1  0
 24 25  4  0
  3 25  4  0
  7 26  1  0
  5 27  1  0
 26 27  1  0
  8 27  1  0
 21 28  2  0
 24 29  4  0
  4 29  4  0
 19 30  1  0
  9 31  1  0
  3 32  1  0
  4 33  1  0
  5 34  1  1
  6 35  1  0
  6 36  1  0
  7 37  1  0
  7 38  1  0
 10 39  1  0
 12 40  1  0
 13 41  1  0
 14 42  1  0
 17 43  1  0
 17 44  1  0
 18 45  1  0
 20 46  1  0
 22 47  1  0
 23 48  1  0
 25 49  1  0
 26 50  1  0
 26 51  1  0
M  END
