
     RDKit          3D

 54 56  0  0  0  0  0  0  0  0999 V2000
  -15.3988   -6.7539   26.2787 C   0  0  0  0  0  0  0  0  0  0  0  0
  -14.3239   -7.7333   26.7511 C   0  0  0  0  0  0  0  0  0  0  0  0
  -13.4759   -7.0873   27.8505 C   0  0  0  0  0  0  0  0  0  0  0  0
  -13.4413   -7.9900   25.6579 O   0  0  0  0  0  0  0  0  0  0  0  0
  -15.0056   -9.0057   27.3176 C   0  0  0  0  0  0  0  0  0  0  0  0
  -14.4036   -9.9368   27.8386 O   0  0  0  0  0  0  0  0  0  0  0  0
  -16.7794   -9.0133   27.2098 S   0  0  0  0  0  0  0  0  0  0  0  0
  -17.0943  -10.7727   27.6179 C   0  0  0  0  0  0  0  0  0  0  0  0
  -18.5870  -11.1029   27.7168 C   0  0  0  0  0  0  0  0  0  0  0  0
  -19.1890  -10.6025   28.9448 N   0  0  0  0  0  0  0  0  0  0  0  0
  -20.2298   -9.6983   28.9329 C   0  0  0  0  0  0  0  0  0  0  0  0
  -20.6785   -9.1904   27.9089 O   0  0  0  0  0  0  0  0  0  0  0  0
  -20.7578   -9.4030   30.3198 C   0  0  0  0  0  0  0  0  0  0  0  0
  -22.2653   -9.5878   30.4049 C   0  0  0  0  0  0  0  0  0  0  0  0
  -22.9151   -8.3939   30.9161 N   0  0  0  0  0  0  0  0  0  0  0  0
  -22.7958   -7.9974   32.2337 C   0  0  0  0  0  0  0  0  0  0  0  0
  -21.9226   -8.4141   32.9899 O   0  0  0  0  0  0  0  0  0  0  0  0
  -23.8574   -6.9563   32.6619 C   0  0  2  0  0  0  0  0  0  0  0  0
  -25.0027   -7.0434   31.7994 O   0  0  0  0  0  0  0  0  0  0  0  0
  -23.2971   -5.5024   32.7155 C   0  0  0  0  0  0  0  0  0  0  0  0
  -22.6984   -5.2143   34.1123 C   0  0  0  0  0  0  0  0  0  0  0  0
  -22.1626   -5.3444   31.6787 C   0  0  0  0  0  0  0  0  0  0  0  0
  -24.3734   -4.4347   32.4019 C   0  0  0  0  0  0  0  0  0  0  0  0
  -25.4291   -4.4582   33.3457 O   0  0  0  0  0  0  0  0  0  0  0  0
  -26.9351   -4.3884   32.7941 P   0  0  1  0  0  5  0  0  0  0  0  0
  -27.4699   -5.8516   33.1718 O   0  0  0  0  0  0  0  0  0  0  0  0
  -27.8062   -3.3080   33.3438 O   0  0  0  0  0  0  0  0  0  0  0  0
  -26.8177   -4.4644   31.2122 O   0  0  0  0  0  0  0  0  0  0  0  0
  -28.0650   -4.2029   30.2721 P   0  0  1  0  0  5  0  0  0  0  0  0
  -27.9578   -4.6360   28.8507 O   0  0  0  0  0  0  0  0  0  0  0  0
  -29.2430   -4.9859   31.0345 O   0  0  0  0  0  0  0  0  0  0  0  0
  -28.4578   -2.6708   30.5310 O   0  0  0  0  0  0  0  0  0  0  0  0
  -28.4948   -1.8187   29.3944 C   0  0  0  0  0  0  0  0  0  0  0  0
  -29.5815   -0.7599   29.5591 C   0  0  1  0  0  0  0  0  0  0  0  0
  -30.7747   -1.2183   28.8787 O   0  0  0  0  0  0  0  0  0  0  0  0
  -29.9607   -0.4942   31.0228 C   0  0  1  0  0  0  0  0  0  0  0  0
  -30.2840    0.8945   31.1936 O   0  0  0  0  0  0  0  0  0  0  0  0
  -29.0314    1.8938   31.2625 P   0  0  0  0  0  5  0  0  0  0  0  0
  -28.3360    2.1454   29.9694 O   0  0  0  0  0  0  0  0  0  0  0  0
  -28.0715    1.2552   32.3614 O   0  0  0  0  0  0  0  0  0  0  0  0
  -29.5806    3.1744   32.0248 O   0  0  0  0  0  0  0  0  0  0  0  0
  -31.2343   -1.3026   31.2035 C   0  0  1  0  0  0  0  0  0  0  0  0
  -32.0456   -0.8102   32.2637 O   0  0  0  0  0  0  0  0  0  0  0  0
  -31.8646   -1.1668   29.8199 C   0  0  2  0  0  0  0  0  0  0  0  0
  -32.8216   -2.1977   29.4879 N   0  0  0  0  0  0  0  0  0  0  0  0
  -32.8777   -3.4725   29.9881 C   0  0  0  0  0  0  0  0  0  0  0  0
  -33.9138   -4.1410   29.5239 N   0  0  0  0  0  0  0  0  0  0  0  0
  -34.5364   -3.2628   28.6583 C   0  0  0  0  0  0  0  0  0  0  0  0
  -33.8701   -2.0487   28.6203 C   0  0  0  0  0  0  0  0  0  0  0  0
  -34.1896   -0.9631   27.8927 N   0  0  0  0  0  0  0  0  0  0  0  0
  -35.2952   -1.1901   27.1569 C   0  0  0  0  0  0  0  0  0  0  0  0
  -36.0556   -2.3071   27.1085 N   0  0  0  0  0  0  0  0  0  0  0  0
  -35.6814   -3.3732   27.8518 C   0  0  0  0  0  0  0  0  0  0  0  0
  -36.4703   -4.5171   27.7947 N   0  0  0  0  0  0  0  0  0  0  0  0
  1  2  1  0
  2  3  1  0
  2  4  1  0
  2  5  1  0
  5  6  2  0
  5  7  1  0
  7  8  1  0
  8  9  1  0
  9 10  1  0
 10 11  1  0
 11 12  2  0
 11 13  1  0
 13 14  1  0
 14 15  1  0
 15 16  1  0
 16 17  2  0
 16 18  1  0
 18 19  1  6
 18 20  1  0
 20 21  1  0
 20 22  1  0
 20 23  1  0
 23 24  1  0
 24 25  1  0
 25 26  1  1
 25 27  2  0
 25 28  1  0
 28 29  1  0
 29 30  2  0
 29 31  1  0
 29 32  1  0
 32 33  1  0
 34 33  1  1
 34 35  1  0
 34 36  1  0
 36 37  1  6
 37 38  1  0
 38 39  2  0
 38 40  1  0
 38 41  1  0
 36 42  1  0
 42 43  1  1
 42 44  1  0
 35 44  1  0
 44 45  1  6
 45 46  4  0
 46 47  4  0
 47 48  4  0
 45 49  4  0
 48 49  4  0
 49 50  4  0
 50 51  4  0
 51 52  4  0
 48 53  4  0
 52 53  4  0
 53 54  1  0
M  END
