7C3U_AZG_B_202
     RDKit          3D

 15 16  0  0  0  0  0  0  0  0999 V2000
   32.1303   37.2554   26.9588 C   0  0  0  0  0  0  0  0  0  0  0  0
   33.0602   36.2445   27.1612 N   0  0  0  0  0  0  0  0  0  0  0  0
   34.3022   36.5775   27.4171 C   0  0  0  0  0  0  0  0  0  0  0  0
   35.1915   35.5812   27.6549 N   0  0  0  0  0  0  0  0  0  0  0  0
   34.7337   37.8676   27.5027 N   0  0  0  0  0  0  0  0  0  0  0  0
   33.9183   38.8906   27.2844 C   0  0  0  0  0  0  0  0  0  0  0  0
   34.3999   40.1277   27.3460 O   0  0  0  0  0  0  0  0  0  0  0  0
   32.5275   38.6478   26.9819 C   0  0  0  0  0  0  0  0  0  0  0  0
   31.4468   39.3440   26.7633 N   0  0  0  0  0  4  0  0  0  0  0  0
   30.3696   38.5391   26.5182 N   0  0  0  0  0  0  0  0  0  0  0  0
   30.8356   37.2011   26.6479 N   0  0  0  0  0  0  0  0  0  0  0  0
   34.9042   34.6411   27.5993 H   0  0  0  0  0  0  0  0  0  0  0  0
   36.1243   35.7981   27.8831 H   0  0  0  0  0  0  0  0  0  0  0  0
   35.3049   40.2688   27.5435 H   0  0  0  0  0  0  0  0  0  0  0  0
   31.4112   40.3279   26.7735 H   0  0  0  0  0  0  0  0  0  0  0  0
  1  2  4  0
  2  3  4  0
  3  4  1  0
  3  5  4  0
  5  6  4  0
  6  7  1  0
  1  8  4  0
  6  8  4  0
  8  9  4  0
  9 10  4  0
  1 11  4  0
 10 11  4  0
  4 12  1  0
  4 13  1  0
  7 14  1  0
  9 15  1  0
M  CHG  1   9   1
M  END
