8D19_GSH_B_501
     RDKit          3D

 37 36  0  0  0  0  0  0  0  0999 V2000
   36.1683   18.9462   41.1719 N   0  0  0  0  0  0  0  0  0  0  0  0
   37.3089   18.1545   40.7031 C   0  0  2  0  0  0  0  0  0  0  0  0
   38.3838   18.1424   41.7547 C   0  0  0  0  0  0  0  0  0  0  0  0
   38.5055   19.1121   42.5511 O   0  0  0  0  0  0  0  0  0  0  0  0
   39.2627   17.0666   41.8335 O   0  0  0  0  0  0  0  0  0  0  0  0
   37.8831   18.7383   39.3928 C   0  0  2  0  0  0  0  0  0  0  0  0
   38.9140   19.8594   39.6020 C   0  0  1  0  0  0  0  0  0  0  0  0
   38.4989   20.8038   40.6924 C   0  0  0  0  0  0  0  0  0  0  0  0
   37.5489   21.6072   40.4864 O   0  0  0  0  0  0  0  0  0  0  0  0
   39.1505   20.7652   41.9705 N   0  0  0  0  0  0  0  0  0  0  0  0
   39.5228   19.5025   42.6153 C   0  0  2  0  0  0  0  0  0  0  0  0
   40.6535   18.8582   41.8563 C   0  0  0  0  0  0  0  0  0  0  0  0
   40.6811   18.9324   40.5971 O   0  0  0  0  0  0  0  0  0  0  0  0
   38.3113   18.5603   42.6812 C   0  0  1  0  0  0  0  0  0  0  0  0
   38.8251   16.8518   43.0547 S   0  0  0  0  0  0  0  0  0  0  0  0
   41.6737   18.1334   42.5584 N   0  0  0  0  0  0  0  0  0  0  0  0
   43.0510   18.6096   42.6457 C   0  0  1  0  0  0  0  0  0  0  0  0
   43.9733   17.6411   41.9769 C   0  0  0  0  0  0  0  0  0  0  0  0
   45.1878   17.5905   42.3090 O   0  0  0  0  0  0  0  0  0  0  0  0
   43.4912   16.8077   40.9725 O   0  0  0  0  0  0  0  0  0  0  0  0
   35.3349   18.3202   41.2451 H   0  0  0  0  0  0  0  0  0  0  0  0
   36.3614   19.2588   42.1519 H   0  0  0  0  0  0  0  0  0  0  0  0
   36.9838   17.1032   40.5354 H   0  0  0  0  0  0  0  0  0  0  0  0
   39.5412   16.6876   42.7310 H   0  0  0  0  0  0  0  0  0  0  0  0
   37.0520   19.1394   38.7698 H   0  0  0  0  0  0  0  0  0  0  0  0
   38.3647   17.9220   38.8106 H   0  0  0  0  0  0  0  0  0  0  0  0
   39.9184   19.4378   39.8138 H   0  0  0  0  0  0  0  0  0  0  0  0
   39.0062   20.4339   38.6551 H   0  0  0  0  0  0  0  0  0  0  0  0
   39.3740   21.6703   42.4436 H   0  0  0  0  0  0  0  0  0  0  0  0
   39.8401   19.7205   43.6592 H   0  0  0  0  0  0  0  0  0  0  0  0
   37.6242   18.8987   43.4865 H   0  0  0  0  0  0  0  0  0  0  0  0
   37.7551   18.5737   41.7188 H   0  0  0  0  0  0  0  0  0  0  0  0
   40.1675   17.2295   43.2477 H   0  0  0  0  0  0  0  0  0  0  0  0
   41.4315   17.2278   43.0198 H   0  0  0  0  0  0  0  0  0  0  0  0
   43.1326   19.6182   42.1849 H   0  0  0  0  0  0  0  0  0  0  0  0
   43.3447   18.6976   43.7135 H   0  0  0  0  0  0  0  0  0  0  0  0
   42.4954   16.6959   40.8241 H   0  0  0  0  0  0  0  0  0  0  0  0
  2  1  1  0
  2  3  1  0
  3  4  2  0
  3  5  1  0
  2  6  1  0
  6  7  1  0
  7  8  1  0
  8  9  2  0
  8 10  1  0
 10 11  1  0
 11 12  1  0
 12 13  2  0
 11 14  1  0
 14 15  1  0
 12 16  1  0
 16 17  1  0
 17 18  1  0
 18 19  2  0
 18 20  1  0
  1 21  1  0
  1 22  1  0
  2 23  1  6
  5 24  1  0
  6 25  1  6
  6 26  1  0
  7 27  1  1
  7 28  1  0
 10 29  1  0
 11 30  1  1
 14 31  1  1
 14 32  1  0
 15 33  1  0
 16 34  1  0
 17 35  1  6
 17 36  1  0
 20 37  1  0
M  END
