1HNN_SKF_A_3001
     RDKit          3D

 26 27  0  0  0  0  0  0  0  0999 V2000
   21.3036   32.1542   17.7772 C   0  0  0  0  0  0  0  0  0  0  0  0
   22.0595   31.7877   18.8929 C   0  0  0  0  0  0  0  0  0  0  0  0
   21.4473   31.6466   20.1440 C   0  0  0  0  0  0  0  0  0  0  0  0
   20.0698   31.8669   20.2705 C   0  0  0  0  0  0  0  0  0  0  0  0
   22.3964   31.1581   21.5447 S   0  0  1  0  0  6  0  0  0  0  0  0
   19.3052   32.2505   19.1579 C   0  0  0  0  0  0  0  0  0  0  0  0
   19.9230   32.3719   17.8955 C   0  0  0  0  0  0  0  0  0  0  0  0
   22.5428   29.6623   21.5652 O   0  0  0  0  0  0  0  0  0  0  0  0
   23.7654   31.7741   21.4707 O   0  0  0  0  0  0  0  0  0  0  0  0
   21.6067   31.6793   22.9911 N   0  0  0  0  0  0  0  0  0  0  0  0
   17.8112   32.4242   19.3053 C   0  0  1  0  0  0  0  0  0  0  0  0
   17.6275   32.6724   16.9078 C   0  0  1  0  0  0  0  0  0  0  0  0
   19.1383   32.8196   16.6899 C   0  0  1  0  0  0  0  0  0  0  0  0
   17.2299   33.2160   18.2121 N   0  0  0  0  0  0  0  0  0  0  0  0
   21.7945   32.2677   16.8183 H   0  0  0  0  0  0  0  0  0  0  0  0
   23.1217   31.6121   18.7794 H   0  0  0  0  0  0  0  0  0  0  0  0
   19.5904   31.7357   21.2330 H   0  0  0  0  0  0  0  0  0  0  0  0
   21.2653   32.6514   22.8185 H   0  0  0  0  0  0  0  0  0  0  0  0
   22.3402   31.7452   23.7321 H   0  0  0  0  0  0  0  0  0  0  0  0
   17.3306   31.4222   19.3325 H   0  0  0  0  0  0  0  0  0  0  0  0
   17.5861   32.9282   20.2706 H   0  0  0  0  0  0  0  0  0  0  0  0
   17.0877   33.2184   16.1046 H   0  0  0  0  0  0  0  0  0  0  0  0
   17.3356   31.6007   16.8360 H   0  0  0  0  0  0  0  0  0  0  0  0
   19.3765   33.8864   16.4885 H   0  0  0  0  0  0  0  0  0  0  0  0
   19.4347   32.2233   15.7998 H   0  0  0  0  0  0  0  0  0  0  0  0
   17.5697   34.2041   18.2904 H   0  0  0  0  0  0  0  0  0  0  0  0
  1  2  2  0
  2  3  1  0
  3  4  2  0
  3  5  1  0
  4  6  1  0
  1  7  1  0
  6  7  2  0
  5  8  2  0
  5  9  2  0
  5 10  1  1
  6 11  1  0
  7 13  1  0
 12 13  1  0
 11 14  1  0
 12 14  1  0
  1 15  1  0
  2 16  1  0
  4 17  1  0
 10 18  1  0
 10 19  1  0
 11 20  1  1
 11 21  1  0
 12 22  1  6
 12 23  1  0
 13 24  1  6
 13 25  1  0
 14 26  1  0
M  END
