
     RDKit          3D

 44 48  0  0  0  0  0  0  0  0999 V2000
  -44.8176   52.3720  -27.0582 P   0  0  2  0  0  5  0  0  0  0  0  0
  -43.4396   52.9445  -27.1036 O   0  0  0  0  0  0  0  0  0  0  0  0
  -45.8737   53.3611  -27.7790 O   0  0  0  0  0  0  0  0  0  0  0  0
  -45.4134   52.0967  -25.6048 O   0  0  0  0  0  0  0  0  0  0  0  0
  -44.6691   51.4960  -24.5697 C   0  0  0  0  0  0  0  0  0  0  0  0
  -45.0753   52.1684  -23.2562 C   0  0  1  0  0  0  0  0  0  0  0  0
  -44.1959   51.7778  -22.1679 O   0  0  0  0  0  0  0  0  0  0  0  0
  -45.0547   53.7034  -23.3256 C   0  0  1  0  0  0  0  0  0  0  0  0
  -46.2954   54.2450  -22.8409 O   0  0  0  0  0  0  0  0  0  0  0  0
  -43.9396   54.0897  -22.3659 C   0  0  1  0  0  0  0  0  0  0  0  0
  -44.0940   55.4139  -21.8653 O   0  0  0  0  0  0  0  0  0  0  0  0
  -44.0656   52.9581  -21.3482 C   0  0  2  0  0  0  0  0  0  0  0  0
  -42.9256   52.8190  -20.4744 N   0  0  0  0  0  0  0  0  0  0  0  0
  -41.6328   52.5231  -20.8267 C   0  0  0  0  0  0  0  0  0  0  0  0
  -40.8312   52.5059  -19.7789 N   0  0  0  0  0  0  0  0  0  0  0  0
  -41.6526   52.7775  -18.7016 C   0  0  0  0  0  0  0  0  0  0  0  0
  -41.4044   52.8945  -17.3217 C   0  0  0  0  0  0  0  0  0  0  0  0
  -40.1549   52.7140  -16.7580 N   0  0  0  0  0  0  0  0  0  0  0  0
  -42.4350   53.2146  -16.5057 N   0  0  0  0  0  0  0  0  0  0  0  0
  -43.6592   53.3786  -17.0520 C   0  0  0  0  0  0  0  0  0  0  0  0
  -44.0206   53.2759  -18.3413 N   0  0  0  0  0  0  0  0  0  0  0  0
  -42.9586   52.9833  -19.1169 C   0  0  0  0  0  0  0  0  0  0  0  0
  -45.0103   50.9958  -27.8250 O   0  0  0  0  0  0  0  0  0  0  0  0
  -46.2151   49.9712  -27.6475 P   0  0  2  0  0  5  0  0  0  0  0  0
  -46.3171   49.0232  -28.8206 O   0  0  0  0  0  0  0  0  0  0  0  0
  -47.4357   50.6732  -27.1377 O   0  0  0  0  0  1  0  0  0  0  0  0
  -45.6405   49.0818  -26.4058 O   0  0  0  0  0  0  0  0  0  0  0  0
  -46.6475   48.3162  -25.7582 C   0  0  0  0  0  0  0  0  0  0  0  0
  -46.0512   46.9520  -25.4237 C   0  0  1  0  0  0  0  0  0  0  0  0
  -46.3466   46.0372  -26.5159 O   0  0  0  0  0  0  0  0  0  0  0  0
  -44.5323   46.9667  -25.2169 C   0  0  1  0  0  0  0  0  0  0  0  0
  -44.1745   46.3986  -23.9531 O   0  0  0  0  0  0  0  0  0  0  0  0
  -43.9905   46.0650  -26.3150 C   0  0  1  0  0  0  0  0  0  0  0  0
  -42.8677   45.2828  -25.9325 O   0  0  0  0  0  0  0  0  0  0  0  0
  -45.2032   45.2075  -26.6656 C   0  0  2  0  0  0  0  0  0  0  0  0
  -45.1084   44.7391  -28.0738 N   0  0  0  0  0  4  0  0  0  0  0  0
  -44.8853   45.6339  -29.0683 C   0  0  0  0  0  0  0  0  0  0  0  0
  -44.7745   45.2275  -30.3969 C   0  0  0  0  0  0  0  0  0  0  0  0
  -44.4357   46.2615  -31.3929 C   0  0  0  0  0  0  0  0  0  0  0  0
  -43.8796   45.9229  -32.4353 O   0  0  0  0  0  0  0  0  0  0  0  0
  -44.7420   47.5638  -31.1151 N   0  0  0  0  0  0  0  0  0  0  0  0
  -44.9167   43.8794  -30.7068 C   0  0  0  0  0  0  0  0  0  0  0  0
  -45.1478   42.9703  -29.6759 C   0  0  0  0  0  0  0  0  0  0  0  0
  -45.2307   43.4218  -28.3560 C   0  0  0  0  0  0  0  0  0  0  0  0
  1  2  2  0
  1  3  1  6
  1  4  1  0
  4  5  1  0
  6  5  1  6
  6  7  1  0
  6  8  1  0
  8  9  1  1
  8 10  1  0
 10 11  1  1
  7 12  1  0
 10 12  1  0
 12 13  1  1
 13 14  4  0
 14 15  4  0
 15 16  4  0
 16 17  4  0
 17 18  1  0
 17 19  4  0
 19 20  4  0
 20 21  4  0
 13 22  4  0
 16 22  4  0
 21 22  4  0
  1 23  1  0
 23 24  1  0
 24 25  2  0
 24 26  1  1
 24 27  1  0
 27 28  1  0
 29 28  1  6
 29 30  1  0
 29 31  1  0
 31 32  1  1
 31 33  1  0
 33 34  1  1
 30 35  1  0
 33 35  1  0
 35 36  1  6
 36 37  4  0
 37 38  4  0
 38 39  1  0
 39 40  2  0
 39 41  1  0
 38 42  4  0
 42 43  4  0
 36 44  4  0
 43 44  4  0
M  CHG  2  26  -1  36   1
M  END
