7LZQ_YJV_A_201
     RDKit          3D

 22 24  0  0  0  0  0  0  0  0999 V2000
    1.3406    6.4016  -18.6118 C   0  0  0  0  0  0  0  0  0  0  0  0
   -1.0636    5.2955  -19.4181 C   0  0  0  0  0  0  0  0  0  0  0  0
   -2.4117   -1.5385  -24.1271 C   0  0  0  0  0  0  0  0  0  0  0  0
   -1.7332   -0.4983  -23.5517 C   0  0  0  0  0  0  0  0  0  0  0  0
   -2.8212    2.3305  -25.5116 C   0  0  0  0  0  0  0  0  0  0  0  0
    1.3261    5.5260  -19.6918 C   0  0  0  0  0  0  0  0  0  0  0  0
   -1.9187    0.7993  -24.0768 C   0  0  0  0  0  0  0  0  0  0  0  0
   -1.4008    2.0366  -23.7598 N   0  0  0  0  0  0  0  0  0  0  0  0
   -0.4660    2.3092  -22.7618 C   0  0  0  0  0  0  0  0  0  0  0  0
   -0.8207    3.3527  -21.7537 C   0  0  0  0  0  0  0  0  0  0  0  0
   -1.9696    3.5537  -21.4800 O   0  0  0  0  0  0  0  0  0  0  0  0
   -4.0001   -2.5490  -25.8105 C   0  0  0  0  0  0  0  0  0  0  0  0
   -0.9972    6.1783  -18.3467 C   0  0  0  0  0  0  0  0  0  0  0  0
   -1.9664    2.9705  -24.6496 C   0  0  0  0  0  0  0  0  0  0  0  0
   -3.4831   -0.0937  -25.7942 C   0  0  0  0  0  0  0  0  0  0  0  0
    0.1474    4.9510  -20.1322 C   0  0  0  0  0  0  0  0  0  0  0  0
   -2.7777    0.9731  -25.1599 C   0  0  0  0  0  0  0  0  0  0  0  0
    0.2157    6.7476  -17.9290 N   0  0  0  0  0  0  0  0  0  0  0  0
    0.2132    4.0705  -21.1833 N   0  0  0  0  0  0  0  0  0  0  0  0
   -3.2754   -1.3768  -25.1974 N   0  0  0  0  0  0  0  0  0  0  0  0
   -4.2715    0.0556  -26.7265 O   0  0  0  0  0  0  0  0  0  0  0  0
    2.8628    5.1947  -20.3785 Cl  0  0  0  0  0  0  0  0  0  0  0  0
  3  4  2  0
  1  6  2  0
  4  7  1  0
  7  8  1  0
  8  9  1  0
  9 10  1  0
 10 11  2  0
  2 13  1  0
  8 14  1  0
  5 14  2  0
  6 16  1  0
  2 16  2  0
  5 17  1  0
  7 17  2  0
 15 17  1  0
  1 18  1  0
 13 18  2  0
 16 19  1  0
 10 19  1  0
 15 20  1  0
  3 20  1  0
 12 20  1  0
 15 21  2  0
  6 22  1  0
M  END
