7NML_I7B_B_201
     RDKit          3D

 16 16  0  0  0  0  0  0  0  0999 V2000
   -4.9330    9.4110   -0.0150 C   0  0  0  0  0  0  0  0  0  0  0  0
   -5.0390    8.1460    0.5350 C   0  0  0  0  0  0  0  0  0  0  0  0
   -5.7370    7.9260    1.6890 C   0  0  0  0  0  0  0  0  0  0  0  0
   -6.3250    8.9870    2.3380 C   0  0  0  0  0  0  0  0  0  0  0  0
   -6.2270   10.2580    1.7960 C   0  0  0  0  0  0  0  0  0  0  0  0
   -5.5290   10.5010    0.6340 C   0  0  0  0  0  0  0  0  0  0  0  0
   -4.2370    6.8430   -0.3510 S   0  0  0  0  0  0  0  0  0  0  0  0
   -3.3780    6.0610    0.6060 N   0  0  0  0  0  0  0  0  0  0  0  0
   -5.3470    5.9470   -1.0260 O   0  0  0  0  0  0  0  0  0  0  0  0
   -3.4210    7.4350   -1.4600 O   0  0  0  0  0  0  0  0  0  0  0  0
   -5.3860   12.1310   -0.1060 S   0  0  0  0  0  0  0  0  0  0  0  0
   -6.7430   12.5080   -0.6650 N   0  0  0  0  0  0  0  0  0  0  0  0
   -4.3860   11.9660   -1.2720 O   0  0  0  0  0  0  0  0  0  0  0  0
   -4.9340   13.1340    0.9160 O   0  0  0  0  0  0  0  0  0  0  0  0
   -5.8390    6.6390    2.2270 N   0  0  0  0  0  0  0  0  0  0  0  0
   -6.9620   11.4560    2.6110 Cl  0  0  0  0  0  0  0  0  0  0  0  0
  1  2  2  0
  2  3  1  0
  3  4  2  0
  4  5  1  0
  1  6  1  0
  5  6  2  0
  2  7  1  0
  7  8  1  0
  7  9  2  0
  7 10  2  0
  6 11  1  0
 11 12  1  0
 11 13  2  0
 11 14  2  0
  3 15  1  0
  5 16  1  0
M  END
$$$$
