7WKL_CAQ_B_401
     RDKit          3D

  8  8  0  0  0  0  0  0  0  0999 V2000
    7.2882    3.9009   56.6926 C   0  0  0  0  0  0  0  0  0  0  0  0
    8.6117    3.8071   57.0858 C   0  0  0  0  0  0  0  0  0  0  0  0
    9.3666    2.6904   56.7528 C   0  0  0  0  0  0  0  0  0  0  0  0
   10.6719    2.6289   57.1569 O   0  0  0  0  0  0  0  0  0  0  0  0
    8.7812    1.6746   56.0249 C   0  0  0  0  0  0  0  0  0  0  0  0
    9.5488    0.5432   55.6885 O   0  0  0  0  0  0  0  0  0  0  0  0
    7.4425    1.7640   55.6243 C   0  0  0  0  0  0  0  0  0  0  0  0
    6.7096    2.8818   55.9651 C   0  0  0  0  0  0  0  0  0  0  0  0
  1  2  2  0
  2  3  1  0
  3  4  1  0
  3  5  2  0
  5  6  1  0
  5  7  1  0
  1  8  1  0
  7  8  2  0
M  END
$$$$
