1P2Y_NCT_A_440
     RDKit          3D

 12 13  0  0  0  0  0  0  0  0999 V2000
   19.1358   33.6016   47.6574 N   0  0  0  0  0  0  0  0  0  0  0  0
   18.1669   33.8899   46.7502 C   0  0  0  0  0  0  0  0  0  0  0  0
   17.8463   32.9790   45.7724 C   0  0  0  0  0  0  0  0  0  0  0  0
   18.5016   31.7456   45.6869 C   0  0  0  0  0  0  0  0  0  0  0  0
   19.4908   31.4660   46.6233 C   0  0  0  0  0  0  0  0  0  0  0  0
   19.7942   32.4128   47.6055 C   0  0  0  0  0  0  0  0  0  0  0  0
   17.1911   32.9838   43.4215 N   0  0  0  0  0  0  0  0  0  0  0  0
   16.7989   33.2572   44.7691 C   0  0  1  0  0  0  0  0  0  0  0  0
   15.5463   32.4114   44.9724 C   0  0  0  0  0  0  0  0  0  0  0  0
   14.8645   32.7140   43.6434 C   0  0  0  0  0  0  0  0  0  0  0  0
   16.0392   32.4778   42.7116 C   0  0  0  0  0  0  0  0  0  0  0  0
   17.8012   34.0664   42.7192 C   0  0  0  0  0  0  0  0  0  0  0  0
  1  2  2  0
  2  3  1  0
  3  4  2  0
  4  5  1  0
  1  6  1  0
  5  6  2  0
  8  3  1  1
  7  8  1  0
  9  8  1  6
  9 10  1  0
 11  7  1  1
 10 11  1  6
 12  7  1  1
M  END
$$$$
