1OF1_SCT_B_500
     RDKit          3D

 34 36  0  0  0  0  0  0  0  0999 V2000
    1.4696   -3.0052   -3.2450 O   0  0  0  0  0  0  0  0  0  0  0  0
    1.9261    1.4320   -2.9791 O   0  0  0  0  0  0  0  0  0  0  0  0
    1.5956   -1.1451    1.0091 O   0  0  0  0  0  0  0  0  0  0  0  0
   -0.9254   -0.9724    4.7668 O   0  0  0  0  0  0  0  0  0  0  0  0
   -0.5177   -0.2880    0.8291 N   0  0  0  0  0  0  0  0  0  0  0  0
    0.3401   -1.0799    2.8904 N   0  0  0  0  0  0  0  0  0  0  0  0
    0.9875   -0.7564   -2.4977 C   0  0  2  0  0  0  0  0  0  0  0  0
    1.6028    0.5416   -1.9435 C   0  0  2  0  0  0  0  0  0  0  0  0
    0.5509    1.1589   -1.0252 C   0  0  0  0  0  0  0  0  0  0  0  0
   -0.3578    0.0131   -0.6035 C   0  0  1  0  0  0  0  0  0  0  0  0
   -0.0692   -1.1953   -1.4806 C   0  0  1  0  0  0  0  0  0  0  0  0
    2.0499   -1.8482   -2.7053 C   0  0  0  0  0  0  0  0  0  0  0  0
    0.4998   -0.8472    1.5592 C   0  0  0  0  0  0  0  0  0  0  0  0
   -1.4257   -0.5053   -1.5607 C   0  0  0  0  0  0  0  0  0  0  0  0
   -0.8123   -0.7503    3.5304 C   0  0  0  0  0  0  0  0  0  0  0  0
   -1.8625   -0.1603    2.8163 C   0  0  0  0  0  0  0  0  0  0  0  0
   -1.6754    0.0817    1.4514 C   0  0  0  0  0  0  0  0  0  0  0  0
   -3.1351    0.2549    3.5008 C   0  0  0  0  0  0  0  0  0  0  0  0
    1.2947   -2.8149   -4.2036 H   0  0  0  0  0  0  0  0  0  0  0  0
    2.7515    1.0820   -3.4049 H   0  0  0  0  0  0  0  0  0  0  0  0
    1.1225   -1.5125    3.4333 H   0  0  0  0  0  0  0  0  0  0  0  0
    0.4929   -0.5510   -3.4743 H   0  0  0  0  0  0  0  0  0  0  0  0
    2.5087    0.3197   -1.3302 H   0  0  0  0  0  0  0  0  0  0  0  0
   -0.0498    1.9261   -1.5612 H   0  0  0  0  0  0  0  0  0  0  0  0
    1.0306    1.6336   -0.1420 H   0  0  0  0  0  0  0  0  0  0  0  0
   -0.0137   -2.1666   -0.9418 H   0  0  0  0  0  0  0  0  0  0  0  0
    2.5209   -2.1089   -1.7330 H   0  0  0  0  0  0  0  0  0  0  0  0
    2.8537   -1.4757   -3.3804 H   0  0  0  0  0  0  0  0  0  0  0  0
   -2.2441   -1.0911   -1.0920 H   0  0  0  0  0  0  0  0  0  0  0  0
   -1.5919    0.1187   -2.4647 H   0  0  0  0  0  0  0  0  0  0  0  0
   -2.4623    0.5672    0.8849 H   0  0  0  0  0  0  0  0  0  0  0  0
   -3.9277    0.5052    2.7638 H   0  0  0  0  0  0  0  0  0  0  0  0
   -3.5108   -0.5714    4.1405 H   0  0  0  0  0  0  0  0  0  0  0  0
   -2.9415    1.1464    4.1332 H   0  0  0  0  0  0  0  0  0  0  0  0
  8  2  1  0
  7  8  1  0
  8  9  1  0
 10  5  1  1
  9 10  1  0
  7 11  1  0
 10 11  1  0
  1 12  1  0
  7 12  1  0
  3 13  2  0
  5 13  1  0
  6 13  1  0
 10 14  1  0
 11 14  1  0
  4 15  2  0
  6 15  1  0
 15 16  1  0
  5 17  1  0
 16 17  2  0
 16 18  1  0
  1 19  1  0
  2 20  1  0
  6 21  1  0
  7 22  1  6
  8 23  1  1
  9 24  1  0
  9 25  1  0
 11 26  1  1
 12 27  1  0
 12 28  1  0
 14 29  1  0
 14 30  1  0
 17 31  1  0
 18 32  1  0
 18 33  1  0
 18 34  1  0
M  END
