7JGW_V9S_A_301
     RDKit          3D

 76 81  0  0  0  0  0  0  0  0999 V2000
   -6.7695   -3.0369   -0.1897 S   0  0  0  0  0  0  0  0  0  0  0  0
   -4.1080   -3.7155    3.5940 C   0  0  0  0  0  0  0  0  0  0  0  0
   -2.0808   -4.7400    4.4675 C   0  0  0  0  0  0  0  0  0  0  0  0
   -3.3177    3.8526    5.8270 C   0  0  0  0  0  0  0  0  0  0  0  0
    0.0459    2.8839    4.9910 O   0  0  0  0  0  0  0  0  0  0  0  0
   -1.1428    2.2040    4.7397 C   0  0  0  0  0  0  0  0  0  0  0  0
   -1.8588    2.5528    3.7632 O   0  0  0  0  0  0  0  0  0  0  0  0
   -1.5383    1.0850    5.6208 C   0  0  0  0  0  0  0  0  0  0  0  0
   -1.5235    1.1835    7.0302 C   0  0  0  0  0  0  0  0  0  0  0  0
   -1.0791    2.3688    7.6412 O   0  0  0  0  0  0  0  0  0  0  0  0
   -0.4485    3.4742    6.9848 C   0  0  0  0  0  0  0  0  0  0  0  0
   -0.8341    3.5426    5.4995 C   0  0  0  0  0  0  0  0  0  0  0  0
   -2.2602    3.1203    5.2615 C   0  0  0  0  0  0  0  0  0  0  0  0
   -2.5503    2.0414    4.4075 C   0  0  0  0  0  0  0  0  0  0  0  0
   -3.8757    1.7196    4.1039 C   0  0  0  0  0  0  0  0  0  0  0  0
   -4.9214    2.4571    4.6642 C   0  0  0  0  0  0  0  0  0  0  0  0
   -4.6433    3.5177    5.5313 C   0  0  0  0  0  0  0  0  0  0  0  0
   -1.9511    0.0743    7.7817 C   0  0  0  0  0  0  0  0  0  0  0  0
   -2.3023   -1.1141    7.1467 C   0  0  0  0  0  0  0  0  0  0  0  0
   -1.9009   -0.0892    5.0359 N   0  0  0  0  0  0  0  0  0  0  0  0
   -2.2599   -1.1891    5.7500 C   0  0  0  0  0  0  0  0  0  0  0  0
   -2.6055   -2.4387    5.0397 C   0  0  0  0  0  0  0  0  0  0  0  0
   -1.7738   -3.5624    5.1518 C   0  0  0  0  0  0  0  0  0  0  0  0
   -3.2302   -4.8173    3.6684 C   0  0  0  0  0  0  0  0  0  0  0  0
   -3.5642   -6.0997    2.9530 C   0  0  0  0  0  0  0  0  0  0  0  0
   -4.2791   -5.7989    1.6341 C   0  0  0  0  0  0  0  0  0  0  0  0
   -5.5667   -4.9971    1.8676 C   0  0  0  0  0  0  0  0  0  0  0  0
   -3.7794   -2.5268    4.2714 C   0  0  0  0  0  0  0  0  0  0  0  0
   -5.3664   -3.8248    2.8087 C   0  0  0  0  0  0  0  0  0  0  0  0
   -6.3320   -2.9843    3.0565 N   0  0  0  0  0  0  0  0  0  0  0  0
   -7.5918   -3.0036    2.4328 N   0  0  0  0  0  0  0  0  0  0  0  0
   -7.7191   -3.5170    1.1084 C   0  0  0  0  0  0  0  0  0  0  0  0
   -8.5917   -4.4886    0.7667 N   0  0  0  0  0  0  0  0  0  0  0  0
   -7.5136   -4.1052   -1.2558 C   0  0  0  0  0  0  0  0  0  0  0  0
   -8.4805   -4.8213   -0.5489 C   0  0  0  0  0  0  0  0  0  0  0  0
   -9.3006   -5.8836   -1.1565 C   0  0  0  0  0  0  0  0  0  0  0  0
   -8.9898   -6.3375   -2.2920 O   0  0  0  0  0  0  0  0  0  0  0  0
  -10.4400   -6.4105   -0.4586 N   0  0  0  0  0  0  0  0  0  0  0  0
  -10.3674   -6.8714    0.9250 C   0  0  0  0  0  0  0  0  0  0  0  0
   -9.0649   -6.4407    1.5366 C   0  0  0  0  0  0  0  0  0  0  0  0
   -8.9192   -6.4158    2.9335 C   0  0  0  0  0  0  0  0  0  0  0  0
   -7.7240   -5.9733    3.5085 C   0  0  0  0  0  0  0  0  0  0  0  0
   -8.0053   -5.9996    0.7257 C   0  0  0  0  0  0  0  0  0  0  0  0
   -6.8123   -5.5564    1.3053 C   0  0  0  0  0  0  0  0  0  0  0  0
   -6.6708   -5.5442    2.6954 C   0  0  0  0  0  0  0  0  0  0  0  0
   -1.4190   -5.5927    4.5596 H   0  0  0  0  0  0  0  0  0  0  0  0
   -3.1144    4.6937    6.4784 H   0  0  0  0  0  0  0  0  0  0  0  0
    0.3355    3.6595    4.4082 H   0  0  0  0  0  0  0  0  0  0  0  0
    0.6510    3.4687    7.1247 H   0  0  0  0  0  0  0  0  0  0  0  0
   -0.8165    4.4033    7.4668 H   0  0  0  0  0  0  0  0  0  0  0  0
   -0.1567    2.8760    4.9212 H   0  0  0  0  0  0  0  0  0  0  0  0
   -0.6664    4.5762    5.1243 H   0  0  0  0  0  0  0  0  0  0  0  0
   -1.7496    1.4747    3.9498 H   0  0  0  0  0  0  0  0  0  0  0  0
   -4.0878    0.9079    3.4209 H   0  0  0  0  0  0  0  0  0  0  0  0
   -5.9468    2.2132    4.4221 H   0  0  0  0  0  0  0  0  0  0  0  0
   -5.4544    4.0908    5.9617 H   0  0  0  0  0  0  0  0  0  0  0  0
   -2.0030    0.1084    8.8589 H   0  0  0  0  0  0  0  0  0  0  0  0
   -2.6152   -1.9623    7.7413 H   0  0  0  0  0  0  0  0  0  0  0  0
   -0.8734   -3.5215    5.7521 H   0  0  0  0  0  0  0  0  0  0  0  0
   -4.2171   -6.7215    3.6036 H   0  0  0  0  0  0  0  0  0  0  0  0
   -2.6378   -6.6750    2.7335 H   0  0  0  0  0  0  0  0  0  0  0  0
   -4.5286   -6.7541    1.1229 H   0  0  0  0  0  0  0  0  0  0  0  0
   -3.5982   -5.2230    0.9679 H   0  0  0  0  0  0  0  0  0  0  0  0
   -5.9167   -4.6327    0.8793 H   0  0  0  0  0  0  0  0  0  0  0  0
   -6.3416   -5.6703    2.2952 H   0  0  0  0  0  0  0  0  0  0  0  0
   -4.4440   -1.6735    4.2131 H   0  0  0  0  0  0  0  0  0  0  0  0
   -8.4510   -2.6626    2.9179 H   0  0  0  0  0  0  0  0  0  0  0  0
   -7.2626   -4.2271   -2.3009 H   0  0  0  0  0  0  0  0  0  0  0  0
  -11.3797   -6.3855   -0.9169 H   0  0  0  0  0  0  0  0  0  0  0  0
  -11.2080   -6.4294    1.5028 H   0  0  0  0  0  0  0  0  0  0  0  0
  -10.4922   -7.9747    0.9691 H   0  0  0  0  0  0  0  0  0  0  0  0
   -9.7322   -6.7339    3.5762 H   0  0  0  0  0  0  0  0  0  0  0  0
   -7.6165   -5.9560    4.5854 H   0  0  0  0  0  0  0  0  0  0  0  0
   -8.1019   -5.9984   -0.3531 H   0  0  0  0  0  0  0  0  0  0  0  0
   -5.9984   -5.2192    0.6764 H   0  0  0  0  0  0  0  0  0  0  0  0
   -5.7477   -5.1985    3.1430 H   0  0  0  0  0  0  0  0  0  0  0  0
  5  6  1  0
  6  7  2  0
  6  8  1  0
  8  9  4  0
  9 10  1  0
 10 11  1  0
 11 12  1  0
  4 13  4  0
 12 13  1  0
 13 14  4  0
 14 15  4  0
 15 16  4  0
 16 17  4  0
  4 17  4  0
  9 18  4  0
 18 19  4  0
  8 20  4  0
 19 21  4  0
 20 21  4  0
 21 22  1  0
 22 23  4  0
  3 23  4  0
  2 24  4  0
  3 24  4  0
 24 25  1  0
 25 26  1  0
 26 27  1  0
 22 28  4  0
  2 28  4  0
  2 29  1  0
 27 29  1  0
 29 30  2  3
 30 31  1  0
  1 32  4  0
 31 32  1  0
 32 33  4  0
  1 34  4  0
 34 35  4  0
 33 35  4  0
 35 36  1  0
 36 37  2  0
 36 38  1  0
 38 39  1  0
 39 40  1  0
 40 41  4  0
 41 42  4  0
 40 43  4  0
 43 44  4  0
 42 45  4  0
 44 45  4  0
  3 46  1  0
  4 47  1  0
  5 48  1  0
 11 49  1  0
 11 50  1  0
 12 51  1  0
 12 52  1  0
 14 53  1  0
 15 54  1  0
 16 55  1  0
 17 56  1  0
 18 57  1  0
 19 58  1  0
 23 59  1  0
 25 60  1  0
 25 61  1  0
 26 62  1  0
 26 63  1  0
 27 64  1  0
 27 65  1  0
 28 66  1  0
 31 67  1  0
 34 68  1  0
 38 69  1  0
 39 70  1  0
 39 71  1  0
 41 72  1  0
 42 73  1  0
 43 74  1  0
 44 75  1  0
 45 76  1  0
M  END
