7C0U_FGO_B_506
     RDKit          3D

 43 48  0  0  0  0  0  0  0  0999 V2000
   42.3480   12.3270   53.8910 C   0  0  1  0  0  0  0  0  0  0  0  0
   41.9650   10.7770   52.2380 C   0  0  1  0  0  0  0  0  0  0  0  0
   42.5730    9.8260   50.1310 C   0  0  0  0  0  0  0  0  0  0  0  0
   43.3920    8.7480   49.5970 C   0  0  0  0  0  0  0  0  0  0  0  0
   43.5230    8.7770   51.7680 C   0  0  0  0  0  0  0  0  0  0  0  0
   43.4230    8.6290   48.1400 C   0  0  0  0  0  0  0  0  0  0  0  0
   41.9460   10.4490   47.9860 C   0  0  0  0  0  0  0  0  0  0  0  0
   41.2350   10.2170   53.4390 C   0  0  1  0  0  0  0  0  0  0  0  0
   41.4710   11.2770   54.5170 C   0  0  2  0  0  0  0  0  0  0  0  0
   39.7820   10.1530   53.1540 C   0  0  0  0  0  0  0  0  0  0  0  0
   45.7730   15.6740   54.2780 O   0  0  0  0  0  0  0  0  0  0  0  0
   45.0070   14.7200   55.1580 P   0  0  1  0  0  0  0  0  0  0  0  0
   45.9100   13.9480   56.2720 O   0  0  0  0  0  0  0  0  0  0  0  0
   43.9280   15.5800   55.9620 O   0  0  0  0  0  0  0  0  0  0  0  0
   42.9810   16.4430   55.3220 C   0  0  2  0  0  0  0  0  0  0  0  0
   43.4310   17.8310   55.6950 C   0  0  1  0  0  0  0  0  0  0  0  0
   43.1820   18.8350   54.5740 C   0  0  0  0  0  0  0  0  0  0  0  0
   41.8010   18.9780   54.2150 O   0  0  0  0  0  0  0  0  0  0  0  0
   42.7280   18.1100   56.9090 O   0  0  0  0  0  0  0  0  0  0  0  0
   41.7100   17.1520   57.1440 C   0  0  1  0  0  0  0  0  0  0  0  0
   40.4950   17.8530   57.6520 N   0  0  0  0  0  0  0  0  0  0  0  0
   39.8030   18.8710   57.0270 C   0  0  0  0  0  0  0  0  0  0  0  0
   38.7130   19.4790   57.6970 C   0  0  0  0  0  0  0  0  0  0  0  0
   38.3200   18.9980   58.9630 C   0  0  0  0  0  0  0  0  0  0  0  0
   37.3330   19.4800   59.6330 O   0  0  0  0  0  0  0  0  0  0  0  0
   39.0270   18.0160   59.5490 N   0  0  0  0  0  0  0  0  0  0  0  0
   40.0820   17.4520   58.9330 C   0  0  0  0  0  0  0  0  0  0  0  0
   40.7210   16.5330   59.4840 O   0  0  0  0  0  0  0  0  0  0  0  0
   41.5600   16.3600   55.8520 C   0  0  2  0  0  0  0  0  0  0  0  0
   41.1170   15.0150   56.1350 O   0  0  0  0  0  0  0  0  0  0  0  0
   44.2090   13.6990   54.2370 O   0  0  0  0  0  0  0  0  0  0  0  0
   43.4740   12.6630   54.8390 C   0  0  0  0  0  0  0  0  0  0  0  0
   40.1720   11.8380   54.9360 C   0  0  0  0  0  0  0  0  0  0  0  0
   39.1730   11.3150   53.9160 C   0  0  0  0  0  0  0  0  0  0  0  0
   38.8930   12.3300   52.9860 O   0  0  0  0  0  0  0  0  0  0  0  0
   37.9640   10.8770   54.5590 O   0  0  0  0  0  0  0  0  0  0  0  0
   42.9040   11.6910   52.7580 O   0  0  0  0  0  0  0  0  0  0  0  0
   42.6810    9.7710   51.4230 N   0  0  0  0  0  0  0  0  0  0  0  0
   43.9690    8.1480   50.6430 N   0  0  0  0  0  0  0  0  0  0  0  0
   41.8550   10.6310   49.3250 N   0  0  0  0  0  0  0  0  0  0  0  0
   41.2290   11.2890   47.2060 N   0  0  0  0  0  0  0  0  0  0  0  0
   42.6850    9.4910   47.4270 N   0  0  0  0  0  0  0  0  0  0  0  0
   44.1080    7.7210   47.6020 O   0  0  0  0  0  0  0  0  0  0  0  0
  3  4  2  0
  4  6  1  0
  2  8  1  0
  8  9  1  0
  1  9  1  0
  8 10  1  6
 11 12  2  0
 12 13  1  1
 12 14  1  0
 15 14  1  1
 15 16  1  0
 16 17  1  6
 17 18  1  0
 16 19  1  0
 19 20  1  0
 20 21  1  6
 21 22  1  0
 22 23  2  0
 23 24  1  0
 24 25  2  0
 24 26  1  0
 26 27  1  0
 21 27  1  0
 27 28  2  0
 20 29  1  0
 15 29  1  0
 29 30  1  1
 12 31  1  0
  1 32  1  1
 31 32  1  0
  9 33  1  6
 10 34  1  0
 33 34  1  0
 34 35  1  0
 34 36  1  0
  2 37  1  0
  1 37  1  0
  2 38  1  1
  3 38  1  0
  5 38  1  0
  4 39  1  0
  5 39  2  0
  7 40  2  0
  3 40  1  0
  7 41  1  0
  7 42  1  0
  6 42  1  0
  6 43  2  0
M  END
$$$$
7C0U_FGO_A_509
     RDKit          3D

 43 48  0  0  0  0  0  0  0  0999 V2000
   14.0690   -5.0590    6.6820 C   0  0  1  0  0  0  0  0  0  0  0  0
   13.6520   -3.5860    8.3590 C   0  0  1  0  0  0  0  0  0  0  0  0
   14.2220   -2.6040   10.4800 C   0  0  0  0  0  0  0  0  0  0  0  0
   15.0360   -1.5180   10.9590 C   0  0  0  0  0  0  0  0  0  0  0  0
   15.1060   -1.5560    8.7920 C   0  0  0  0  0  0  0  0  0  0  0  0
   15.0860   -1.3340   12.4200 C   0  0  0  0  0  0  0  0  0  0  0  0
   13.6680   -3.2060   12.6250 C   0  0  0  0  0  0  0  0  0  0  0  0
   12.9080   -2.9780    7.1930 C   0  0  1  0  0  0  0  0  0  0  0  0
   13.1590   -4.0150    6.1130 C   0  0  2  0  0  0  0  0  0  0  0  0
   11.4450   -2.8570    7.4200 C   0  0  0  0  0  0  0  0  0  0  0  0
   17.5120   -8.2360    6.3110 O   0  0  0  0  0  0  0  0  0  0  0  0
   16.7460   -7.3680    5.3490 P   0  0  1  0  0  0  0  0  0  0  0  0
   17.6110   -6.6070    4.3080 O   0  0  0  0  0  0  0  0  0  0  0  0
   15.6630   -8.2760    4.5570 O   0  0  0  0  0  0  0  0  0  0  0  0
   14.7080   -9.1350    5.2050 C   0  0  2  0  0  0  0  0  0  0  0  0
   15.1160  -10.5420    4.9180 C   0  0  1  0  0  0  0  0  0  0  0  0
   14.8480  -11.4910    6.0500 C   0  0  0  0  0  0  0  0  0  0  0  0
   13.4510  -11.5450    6.3170 O   0  0  0  0  0  0  0  0  0  0  0  0
   14.4540  -10.8750    3.6960 O   0  0  0  0  0  0  0  0  0  0  0  0
   13.5200   -9.8580    3.3280 C   0  0  1  0  0  0  0  0  0  0  0  0
   12.2860  -10.5390    2.7990 N   0  0  0  0  0  0  0  0  0  0  0  0
   11.5960  -11.5040    3.4610 C   0  0  0  0  0  0  0  0  0  0  0  0
   10.4870  -12.0930    2.8280 C   0  0  0  0  0  0  0  0  0  0  0  0
   10.0540  -11.6600    1.5590 C   0  0  0  0  0  0  0  0  0  0  0  0
    9.0250  -12.1520    0.9770 O   0  0  0  0  0  0  0  0  0  0  0  0
   10.7350  -10.6870    0.9310 N   0  0  0  0  0  0  0  0  0  0  0  0
   11.8220  -10.1380    1.5180 C   0  0  0  0  0  0  0  0  0  0  0  0
   12.4600   -9.2370    0.9150 O   0  0  0  0  0  0  0  0  0  0  0  0
   13.3400   -9.0230    4.6100 C   0  0  2  0  0  0  0  0  0  0  0  0
   12.9510   -7.6500    4.3870 O   0  0  0  0  0  0  0  0  0  0  0  0
   16.0060   -6.3100    6.2670 O   0  0  0  0  0  0  0  0  0  0  0  0
   15.1290   -5.3760    5.6630 C   0  0  0  0  0  0  0  0  0  0  0  0
   11.8420   -4.5360    5.6670 C   0  0  0  0  0  0  0  0  0  0  0  0
   10.8750   -4.0860    6.7520 C   0  0  0  0  0  0  0  0  0  0  0  0
   10.8030   -5.1830    7.6270 O   0  0  0  0  0  0  0  0  0  0  0  0
    9.6090   -3.7400    6.1740 O   0  0  0  0  0  0  0  0  0  0  0  0
   14.6870   -4.4060    7.7940 O   0  0  0  0  0  0  0  0  0  0  0  0
   14.3370   -2.5760    9.1740 N   0  0  0  0  0  0  0  0  0  0  0  0
   15.5500   -0.9050    9.8760 N   0  0  0  0  0  0  0  0  0  0  0  0
   13.5180   -3.4020   11.3000 N   0  0  0  0  0  0  0  0  0  0  0  0
   12.9820   -4.0350   13.4450 N   0  0  0  0  0  0  0  0  0  0  0  0
   14.4050   -2.2050   13.1570 N   0  0  0  0  0  0  0  0  0  0  0  0
   15.7420   -0.4070   12.9370 O   0  0  0  0  0  0  0  0  0  0  0  0
  3  4  2  0
  4  6  1  0
  2  8  1  0
  8  9  1  0
  1  9  1  0
  8 10  1  1
 11 12  2  0
 12 13  1  6
 12 14  1  0
 15 14  1  6
 15 16  1  0
 16 17  1  1
 17 18  1  0
 16 19  1  0
 19 20  1  0
 20 21  1  1
 21 22  1  0
 22 23  2  0
 23 24  1  0
 24 25  2  0
 24 26  1  0
 26 27  1  0
 21 27  1  0
 27 28  2  0
 20 29  1  0
 15 29  1  0
 29 30  1  6
 12 31  1  0
  1 32  1  6
 31 32  1  0
  9 33  1  1
 10 34  1  0
 33 34  1  0
 34 35  1  0
 34 36  1  0
  2 37  1  0
  1 37  1  0
  2 38  1  1
  3 38  1  0
  5 38  1  0
  4 39  1  0
  5 39  2  0
  7 40  2  0
  3 40  1  0
  7 41  1  0
  7 42  1  0
  6 42  1  0
  6 43  2  0
M  END
$$$$
