7T3F_EM0_A_201
     RDKit          3D

 40 42  0  0  0  0  0  0  0  0999 V2000
   43.7335   41.4928   71.3960 F   0  0  0  0  0  0  0  0  0  0  0  0
   43.6626   40.7463   72.5202 C   0  0  0  0  0  0  0  0  0  0  0  0
   43.0072   41.2572   73.6071 C   0  0  0  0  0  0  0  0  0  0  0  0
   42.3595   42.6204   73.5485 C   0  0  0  0  0  0  0  0  0  0  0  0
   42.9766   40.4916   74.7861 C   0  0  0  0  0  0  0  0  0  0  0  0
   43.6142   39.2443   74.9654 C   0  0  0  0  0  0  0  0  0  0  0  0
   44.2140   38.7765   73.7617 C   0  0  0  0  0  0  0  0  0  0  0  0
   44.2818   39.5163   72.5706 C   0  0  0  0  0  0  0  0  0  0  0  0
   43.5113   38.3381   76.3166 S   0  0  2  0  0  6  0  0  0  0  0  0
   42.6817   37.2190   76.0148 O   0  0  0  0  0  0  0  0  0  0  0  0
   43.0706   39.2333   77.3686 O   0  0  0  0  0  0  0  0  0  0  0  0
   44.9870   37.9088   76.6644 N   0  0  0  0  0  0  0  0  0  0  0  0
   46.0242   38.8427   76.9017 C   0  0  0  0  0  0  0  0  0  0  0  0
   45.8817   39.9451   77.7448 C   0  0  0  0  0  0  0  0  0  0  0  0
   46.9405   40.8081   77.9978 C   0  0  0  0  0  0  0  0  0  0  0  0
   46.7594   41.9684   78.8796 C   0  0  0  0  0  0  0  0  0  0  0  0
   47.9845   42.7259   79.1245 N   0  0  0  0  0  0  0  0  0  0  0  0
   47.9035   43.8455   80.0558 C   0  0  0  0  0  0  0  0  0  0  0  0
   49.1933   42.4531   78.4808 C   0  0  0  0  0  0  0  0  0  0  0  0
   50.1882   43.1507   78.7002 O   0  0  0  0  0  0  0  0  0  0  0  0
   49.2491   41.4377   77.6160 N   0  0  0  0  0  0  0  0  0  0  0  0
   48.2016   40.5759   77.4038 C   0  0  0  0  0  0  0  0  0  0  0  0
   48.3764   39.4602   76.5828 C   0  0  0  0  0  0  0  0  0  0  0  0
   47.2954   38.5995   76.3558 C   0  0  0  0  0  0  0  0  0  0  0  0
   42.4919   43.0364   72.5716 H   0  0  0  0  0  0  0  0  0  0  0  0
   41.3143   42.5280   73.7583 H   0  0  0  0  0  0  0  0  0  0  0  0
   42.8135   43.2625   74.2741 H   0  0  0  0  0  0  0  0  0  0  0  0
   42.4453   40.8718   75.5849 H   0  0  0  0  0  0  0  0  0  0  0  0
   44.6262   37.8304   73.7652 H   0  0  0  0  0  0  0  0  0  0  0  0
   44.7852   39.1465   71.7492 H   0  0  0  0  0  0  0  0  0  0  0  0
   45.1970   36.9485   76.7190 H   0  0  0  0  0  0  0  0  0  0  0  0
   44.9684   40.1236   78.1909 H   0  0  0  0  0  0  0  0  0  0  0  0
   46.0428   42.6238   78.4304 H   0  0  0  0  0  0  0  0  0  0  0  0
   46.4350   41.5900   79.8265 H   0  0  0  0  0  0  0  0  0  0  0  0
   46.9121   43.9077   80.4534 H   0  0  0  0  0  0  0  0  0  0  0  0
   48.5995   43.6959   80.8547 H   0  0  0  0  0  0  0  0  0  0  0  0
   48.1397   44.7542   79.5426 H   0  0  0  0  0  0  0  0  0  0  0  0
   50.0802   41.3003   77.1065 H   0  0  0  0  0  0  0  0  0  0  0  0
   49.2930   39.2719   76.1477 H   0  0  0  0  0  0  0  0  0  0  0  0
   47.4368   37.7617   75.7700 H   0  0  0  0  0  0  0  0  0  0  0  0
  1  2  1  0
  2  3  4  0
  3  4  1  0
  3  5  4  0
  5  6  4  0
  6  7  4  0
  2  8  4  0
  7  8  4  0
  6  9  1  0
  9 10  2  0
  9 11  2  0
  9 12  1  6
 12 13  1  0
 13 14  4  0
 14 15  4  0
 15 16  1  0
 16 17  1  0
 17 18  1  0
 17 19  1  0
 19 20  2  0
 19 21  1  0
 21 22  1  0
 15 22  4  0
 22 23  4  0
 23 24  4  0
 13 24  4  0
  4 25  1  0
  4 26  1  0
  4 27  1  0
  5 28  1  0
  7 29  1  0
  8 30  1  0
 12 31  1  0
 14 32  1  0
 16 33  1  0
 16 34  1  0
 18 35  1  0
 18 36  1  0
 18 37  1  0
 21 38  1  0
 23 39  1  0
 24 40  1  0
M  END
