7K41_VUA_A_2602
     RDKit          3D

 22 24  0  0  0  0  0  0  0  0999 V2000
   -9.5357  -11.2818   11.6250 N   0  0  0  0  0  0  0  0  0  0  0  0
   -5.8330  -10.2458   10.1604 N   0  0  0  0  0  0  0  0  0  0  0  0
   -8.6083  -12.3618    5.2586 C   0  0  0  0  0  0  0  0  0  0  0  0
  -10.3244  -13.9633    5.1722 C   0  0  0  0  0  0  0  0  0  0  0  0
   -7.4720  -10.2044   11.9581 C   0  0  0  0  0  0  0  0  0  0  0  0
   -8.7202  -10.5680   12.4187 C   0  0  0  0  0  0  0  0  0  0  0  0
   -9.7345  -12.9255    5.8553 C   0  0  0  0  0  0  0  0  0  0  0  0
   -9.1991  -11.6773   10.3665 C   0  0  0  0  0  0  0  0  0  0  0  0
   -4.9316   -9.3259   10.8236 C   0  0  0  0  0  0  0  0  0  0  0  0
   -3.0570  -10.3858    9.5621 C   0  0  1  0  0  0  0  0  0  0  0  0
  -10.1919  -12.3916    7.1443 C   0  0  0  0  0  0  0  0  0  0  0  0
   -8.7422  -13.8723    3.3930 C   0  0  0  0  0  0  0  0  0  0  0  0
   -8.1246  -12.8170    4.0668 C   0  0  0  0  0  0  0  0  0  0  0  0
   -9.8470  -14.4282    3.9747 C   0  0  0  0  0  0  0  0  0  0  0  0
   -7.1050  -10.5918   10.6864 C   0  0  0  0  0  0  0  0  0  0  0  0
   -3.5568   -9.9601   10.9002 C   0  0  0  0  0  0  0  0  0  0  0  0
   -4.0821  -10.2716    8.4639 C   0  0  0  0  0  0  0  0  0  0  0  0
   -5.4009  -10.8324    8.9008 C   0  0  0  0  0  0  0  0  0  0  0  0
   -1.7869   -9.6990    9.1246 C   0  0  0  0  0  0  0  0  0  0  0  0
   -9.5583  -13.0203    8.3521 C   0  0  0  0  0  0  0  0  0  0  0  0
   -7.9754  -11.3058    9.9494 N   0  0  0  0  0  0  0  0  0  0  0  0
  -10.0962  -12.4363    9.5533 N   0  0  0  0  0  0  0  0  0  0  0  0
  5  6  1  0
  1  6  2  0
  4  7  1  0
  3  7  2  0
  1  8  1  0
  9  2  1  6
 11  7  1  1
 12 13  2  0
  3 13  1  0
  4 14  2  0
 12 14  1  0
  2 15  1  0
  5 15  2  0
 10 16  1  0
 16  9  1  6
 10 17  1  0
 17 18  1  6
 18  2  1  6
 10 19  1  6
 11 20  1  0
 15 21  1  0
  8 21  2  0
 20 22  1  1
  8 22  1  0
M  END
$$$$
