8EXL_799_A_1101
     RDKit          3D

 34 38  0  0  0  0  0  0  0  0999 V2000
  -14.1187    4.9569   24.2812 C   0  0  0  0  0  0  0  0  0  0  0  0
  -14.3377    5.8393   23.0893 C   0  0  2  0  0  0  0  0  0  0  0  0
  -14.9236    5.0255   21.9339 C   0  0  0  0  0  0  0  0  0  0  0  0
  -12.9997    6.4646   22.6825 C   0  0  0  0  0  0  0  0  0  0  0  0
  -15.5678    7.3618   24.6779 C   0  0  0  0  0  0  0  0  0  0  0  0
  -17.1319    9.1421   25.6293 C   0  0  0  0  0  0  0  0  0  0  0  0
  -15.9823   11.8725   29.2262 C   0  0  0  0  0  0  0  0  0  0  0  0
  -16.9822   12.9389   29.6518 C   0  0  0  0  0  0  0  0  0  0  0  0
  -19.3273   12.7511   30.5134 C   0  0  0  0  0  0  0  0  0  0  0  0
  -18.2024   10.6785   27.6954 C   0  0  0  0  0  0  0  0  0  0  0  0
  -18.9590    9.6878   27.0755 C   0  0  0  0  0  0  0  0  0  0  0  0
  -23.0992   10.7094   29.2906 C   0  0  1  0  0  0  0  0  0  0  0  0
  -23.6662    9.3767   29.7772 C   0  0  0  0  0  0  0  0  0  0  0  0
  -24.0545   11.4453   28.3505 C   0  0  0  0  0  0  0  0  0  0  0  0
  -14.5629    5.3345   25.5042 N   0  0  0  0  0  0  0  0  0  0  0  0
  -13.5537    3.8973   24.1323 O   0  0  0  0  0  0  0  0  0  0  0  0
  -15.2981    6.8956   23.4345 N   0  0  0  0  0  0  0  0  0  0  0  0
  -16.5207    8.3344   24.5379 C   0  0  0  0  0  0  0  0  0  0  0  0
  -16.8044    8.4702   23.1612 C   0  0  0  0  0  0  0  0  0  0  0  0
  -16.0728    7.6059   22.5117 N   0  0  0  0  0  0  0  0  0  0  0  0
  -16.3567   10.1119   26.2346 C   0  0  0  0  0  0  0  0  0  0  0  0
  -16.8654   10.8803   27.2581 C   0  0  0  0  0  0  0  0  0  0  0  0
  -16.0591   11.8002   27.8010 O   0  0  0  0  0  0  0  0  0  0  0  0
  -18.3322   12.3931   29.6519 N   0  0  0  0  0  0  0  0  0  0  0  0
  -20.4361   12.0318   30.1937 C   0  0  0  0  0  0  0  0  0  0  0  0
  -20.1148   11.2390   29.1445 N   0  0  0  0  0  0  0  0  0  0  0  0
  -18.8652   11.4287   28.7939 C   0  0  0  0  0  0  0  0  0  0  0  0
  -18.4426    8.9260   26.0472 C   0  0  0  0  0  0  0  0  0  0  0  0
  -21.7510   12.1468   30.8566 C   0  0  0  0  0  0  0  0  0  0  0  0
  -22.0271   12.8686   31.9249 N   0  0  0  0  0  0  0  0  0  0  0  0
  -23.3166   12.7645   32.2202 C   0  0  0  0  0  0  0  0  0  0  0  0
  -24.0242   13.4374   33.3752 C   0  0  0  0  0  0  0  0  0  0  0  0
  -23.8843   11.9873   31.3418 N   0  0  0  0  0  0  0  0  0  0  0  0
  -22.8955   11.5838   30.4450 N   0  0  0  0  0  0  0  0  0  0  0  0
  1  2  1  0
  2  3  1  6
  2  4  1  0
  7  8  1  0
 10 11  2  0
 12 13  1  1
 12 14  1  0
  1 15  1  0
  1 16  2  0
  5 17  1  0
  2 17  1  0
  6 18  1  0
  5 18  2  0
 18 19  1  0
 19 20  2  0
 17 20  1  0
  6 21  1  0
 10 22  1  0
 21 22  2  0
 22 23  1  0
  7 23  1  0
  9 24  1  0
  8 24  1  0
  9 25  2  0
 25 26  1  0
 26 27  2  0
 24 27  1  0
 10 27  1  0
 11 28  1  0
  6 28  2  0
 25 29  1  0
 29 30  2  0
 30 31  1  0
 31 32  1  0
 31 33  2  0
 33 34  1  0
 12 34  1  0
 29 34  1  0
M  END
