8H0M_2EH_A_405
     RDKit          3D

 27 26  0  0  0  0  0  0  0  0999 V2000
   10.9032   -0.2489    1.2106 C   0  0  0  0  0  0  0  0  0  0  0  0
    8.7089   -0.0793   -0.1027 C   0  0  0  0  0  0  0  0  0  0  0  0
    8.1455   -1.4232   -0.5673 C   0  0  0  0  0  0  0  0  0  0  0  0
    8.0677   -2.3764    1.2560 C   0  0  0  0  0  0  0  0  0  0  0  0
    9.3651   -0.1311    1.3031 C   0  0  1  0  0  0  0  0  0  0  0  0
   11.3363   -0.0367   -0.1044 O   0  0  0  0  0  0  0  0  0  0  0  0
    8.7789   -1.3204    2.1252 C   0  0  0  0  0  0  0  0  0  0  0  0
    7.6127   -1.8690   -0.1228 C   0  0  0  0  0  0  0  0  0  0  0  0
    8.4735   -0.7179   -0.6432 C   0  0  0  0  0  0  0  0  0  0  0  0
   11.2311   -1.2520    1.5660 H   0  0  0  0  0  0  0  0  0  0  0  0
   11.3761    0.5237    1.8582 H   0  0  0  0  0  0  0  0  0  0  0  0
    9.4652    0.2314   -0.8532 H   0  0  0  0  0  0  0  0  0  0  0  0
    7.9009    0.6843   -0.1220 H   0  0  0  0  0  0  0  0  0  0  0  0
    7.8927   -1.3623   -1.6469 H   0  0  0  0  0  0  0  0  0  0  0  0
    8.8934   -2.2324   -0.4281 H   0  0  0  0  0  0  0  0  0  0  0  0
    7.2144   -1.6726   -0.0195 H   0  0  0  0  0  0  0  0  0  0  0  0
    8.7491   -3.2441    1.1154 H   0  0  0  0  0  0  0  0  0  0  0  0
    7.1803   -2.7563    1.8079 H   0  0  0  0  0  0  0  0  0  0  0  0
    9.1422    0.8206    1.8360 H   0  0  0  0  0  0  0  0  0  0  0  0
   12.3200   -0.1680   -0.0964 H   0  0  0  0  0  0  0  0  0  0  0  0
    8.0217   -0.9552    2.8531 H   0  0  0  0  0  0  0  0  0  0  0  0
    9.5582   -1.8031    2.7527 H   0  0  0  0  0  0  0  0  0  0  0  0
    6.5457   -1.5650   -0.0998 H   0  0  0  0  0  0  0  0  0  0  0  0
    7.6941   -2.7104   -0.8445 H   0  0  0  0  0  0  0  0  0  0  0  0
    8.1582   -0.4604   -1.6762 H   0  0  0  0  0  0  0  0  0  0  0  0
    9.5439   -1.0136   -0.6650 H   0  0  0  0  0  0  0  0  0  0  0  0
    8.3552    0.1855   -0.0114 H   0  0  0  0  0  0  0  0  0  0  0  0
  2  3  1  0
  5  1  1  0
  2  5  1  0
  1  6  1  0
  4  7  1  0
  5  7  1  0
  4  8  1  0
  8  9  1  0
  1 10  1  0
  1 11  1  0
  2 12  1  0
  2 13  1  0
  3 14  1  0
  3 15  1  0
  3 16  1  0
  4 17  1  0
  4 18  1  0
  5 19  1  1
  6 20  1  0
  7 21  1  0
  7 22  1  0
  8 23  1  0
  8 24  1  0
  9 25  1  0
  9 26  1  0
  9 27  1  0
M  END
