
     RDKit          3D

 26 28  0  0  0  0  0  0  0  0999 V2000
   22.8750   20.9167   94.9574 O   0  0  0  0  0  0  0  0  0  0  0  0
   25.9869   16.7471  100.2411 C   0  0  0  0  0  0  0  0  0  0  0  0
   25.6545   16.3696   98.8229 C   0  0  0  0  0  0  0  0  0  0  0  0
   25.4442   17.7862   99.2936 C   0  0  0  0  0  0  0  0  0  0  0  0
   21.9641   21.3514   95.6516 C   0  0  0  0  0  0  0  0  0  0  0  0
   22.0469   21.2158   97.1352 C   0  0  0  0  0  0  0  0  0  0  0  0
   21.0241   21.7716   97.9185 C   0  0  0  0  0  0  0  0  0  0  0  0
   21.0699   21.6775   99.3118 C   0  0  0  0  0  0  0  0  0  0  0  0
   22.1390   21.0297   99.9263 C   0  0  0  0  0  0  0  0  0  0  0  0
   22.1452   20.9647  101.2919 O   0  0  0  0  0  0  0  0  0  0  0  0
   23.0213   21.9464  101.8352 C   0  0  0  0  0  0  0  0  0  0  0  0
   22.6684   23.1632  101.3481 F   0  0  0  0  0  0  0  0  0  0  0  0
   22.7953   21.9861  103.1733 F   0  0  0  0  0  0  0  0  0  0  0  0
   23.1245   20.4173   99.1465 C   0  0  0  0  0  0  0  0  0  0  0  0
   24.1759   19.7429   99.7071 O   0  0  0  0  0  0  0  0  0  0  0  0
   24.0601   18.3321   99.4706 C   0  0  0  0  0  0  0  0  0  0  0  0
   23.0976   20.5275   97.7557 C   0  0  0  0  0  0  0  0  0  0  0  0
   20.7802   21.8845   95.1700 N   0  0  0  0  0  0  0  0  0  0  0  0
   20.5625   22.2235   93.8039 C   0  0  0  0  0  0  0  0  0  0  0  0
   20.1752   21.3064   92.8142 C   0  0  0  0  0  0  0  0  0  0  0  0
   20.1301   19.5948   93.0415 Cl  0  0  0  0  0  0  0  0  0  0  0  0
   19.9683   21.7811   91.5212 C   0  0  0  0  0  0  0  0  0  0  0  0
   20.1430   23.0697   91.1394 N   0  0  0  0  0  0  0  0  0  0  0  0
   20.5685   23.9233   92.0963 C   0  0  0  0  0  0  0  0  0  0  0  0
   20.8014   23.5517   93.4141 C   0  0  0  0  0  0  0  0  0  0  0  0
   21.3515   24.7443   94.5378 Cl  0  0  0  0  0  0  0  0  0  0  0  0
  2  3  1  0
  2  4  1  0
  3  4  1  0
  1  5  2  0
  5  6  1  0
  6  7  4  0
  7  8  4  0
  8  9  4  0
  9 10  1  0
 10 11  1  0
 11 12  1  0
 11 13  1  0
  9 14  4  0
 14 15  1  0
  4 16  1  0
 15 16  1  0
  6 17  4  0
 14 17  4  0
  5 18  1  0
 18 19  1  0
 19 20  4  0
 20 21  1  0
 20 22  4  0
 22 23  4  0
 23 24  4  0
 19 25  4  0
 24 25  4  0
 25 26  1  0
M  END
