7QGP_DJ8_A_401
     RDKit          3D

 35 39  0  0  0  0  0  0  0  0999 V2000
  -27.0990    1.3966    8.7360 N   0  0  0  0  0  0  0  0  0  0  0  0
  -29.2892    1.4961    5.7969 C   0  0  0  0  0  0  0  0  0  0  0  0
  -27.4198    1.4992    7.4060 C   0  0  0  0  0  0  0  0  0  0  0  0
  -22.5825    0.2900   15.5892 N   0  0  0  0  0  0  0  0  0  0  0  0
  -25.7707    1.4106    9.2399 C   0  0  0  0  0  0  0  0  0  0  0  0
  -26.6628    1.9985   11.3231 O   0  0  0  0  0  0  0  0  0  0  0  0
  -29.6258   -0.4748    4.2295 C   0  0  0  0  0  0  0  0  0  0  0  0
  -30.8252   -0.4136    6.3272 C   0  0  0  0  0  0  0  0  0  0  0  0
  -29.9282    0.1747    5.4386 C   0  0  0  0  0  0  0  0  0  0  0  0
  -20.2106    0.7362   12.3715 N   0  0  0  0  0  0  0  0  0  0  0  0
  -31.4312   -1.6191    6.0409 C   0  0  0  0  0  0  0  0  0  0  0  0
  -31.1424   -2.2398    4.8499 C   0  0  0  0  0  0  0  0  0  0  0  0
  -30.2471   -1.6919    3.9538 C   0  0  0  0  0  0  0  0  0  0  0  0
  -19.6182    0.8434   11.1330 N   0  0  0  0  0  0  0  0  0  0  0  0
  -26.5763    1.6491    6.5299 O   0  0  0  0  0  0  0  0  0  0  0  0
  -28.7519    1.5284    7.1519 N   0  0  0  0  0  0  0  0  0  0  0  0
  -31.9868   -3.7035    4.4238 Cl  0  0  0  0  0  0  0  0  0  0  0  0
  -28.6570    0.1082    3.2322 C   0  0  0  0  0  0  0  0  0  0  0  0
  -25.5617    1.6293   10.6037 C   0  0  0  0  0  0  0  0  0  0  0  0
  -24.3013    1.4938   11.1539 C   0  0  0  0  0  0  0  0  0  0  0  0
  -26.4939    2.2988   12.7264 C   0  0  0  0  0  0  0  0  0  0  0  0
  -26.3438    1.0332   13.5378 C   0  0  0  0  0  0  0  0  0  0  0  0
  -26.0700    1.3532   14.9047 O   0  0  0  0  0  0  0  0  0  0  0  0
  -24.6918    1.5552   15.2707 C   0  0  0  0  0  0  0  0  0  0  0  0
  -24.0387    0.2160   15.5082 C   0  0  0  0  0  0  0  0  0  0  0  0
  -21.7578    0.4080   14.5184 C   0  0  0  0  0  0  0  0  0  0  0  0
  -22.3660    0.5599   13.3467 N   0  0  0  0  0  0  0  0  0  0  0  0
  -21.5669    0.8284   12.3042 C   0  0  0  0  0  0  0  0  0  0  0  0
  -19.5860    0.5201   13.5602 C   0  0  0  0  0  0  0  0  0  0  0  0
  -20.3398    0.3662   14.6710 C   0  0  0  0  0  0  0  0  0  0  0  0
  -21.8826    0.9930   10.9470 C   0  0  0  0  0  0  0  0  0  0  0  0
  -20.6377    0.9973   10.3009 C   0  0  0  0  0  0  0  0  0  0  0  0
  -23.2247    1.1444   10.3483 C   0  0  0  0  0  0  0  0  0  0  0  0
  -23.4277    0.9471    8.9877 C   0  0  0  0  0  0  0  0  0  0  0  0
  -24.6864    1.0851    8.4318 C   0  0  0  0  0  0  0  0  0  0  0  0
  1  3  1  0
  1  5  1  0
  8  9  1  0
  2  9  1  0
  7  9  2  0
  8 11  2  0
 11 12  1  0
 12 13  2  0
  7 13  1  0
 10 14  1  0
  3 15  2  0
  2 16  1  0
  3 16  1  0
 12 17  1  0
  7 18  1  0
  6 19  1  0
  5 19  2  0
 19 20  1  0
  6 21  1  0
 21 22  1  0
 22 23  1  0
 23 24  1  0
 24 25  1  0
  4 25  1  0
  4 26  1  0
 26 27  2  0
 27 28  1  0
 10 28  1  0
 10 29  1  0
 26 30  1  0
 29 30  2  0
 28 31  2  0
 31 32  1  0
 14 32  2  0
 20 33  2  0
 31 33  1  0
 33 34  1  0
  5 35  1  0
 34 35  2  0
M  END
