7DQL_4CL_A_302
     RDKit          3D

  9  9  0  0  0  0  0  0  0  0999 V2000
   14.2900    2.8329   13.8724 Cl  0  0  0  0  0  0  0  0  0  0  0  0
   15.6246    1.6991   13.6962 C   0  0  0  0  0  0  0  0  0  0  0  0
   16.0101    0.9430   14.8015 C   0  0  0  0  0  0  0  0  0  0  0  0
   17.0577    0.0610   14.6417 C   0  0  0  0  0  0  0  0  0  0  0  0
   17.7324   -0.1033   13.4500 C   0  0  0  0  0  0  0  0  0  0  0  0
   18.7676   -1.0131   13.3955 O   0  0  0  0  0  0  0  0  0  0  0  0
   17.3259    0.6604   12.3752 C   0  0  0  0  0  0  0  0  0  0  0  0
   16.2847    1.5608   12.4695 C   0  0  0  0  0  0  0  0  0  0  0  0
   17.9984    0.5023   11.1718 O   0  0  0  0  0  0  0  0  0  0  0  0
  1  2  1  0
  2  3  2  0
  3  4  1  0
  4  5  2  0
  5  6  1  0
  5  7  1  0
  2  8  1  0
  7  8  2  0
  7  9  1  0
M  END
$$$$
