6T88_MWQ_A_608
     RDKit          3D

 18 18  0  0  0  0  0  0  0  0999 V2000
   -2.0410   -0.7604   -0.5598 O   0  0  0  0  0  0  0  0  0  0  0  0
   -1.1241   -0.9784   -1.3963 C   0  0  0  0  0  0  0  0  0  0  0  0
   -0.7895   -2.2850   -1.7371 O   0  0  0  0  0  0  0  0  0  0  0  0
   -0.3653    0.1662   -1.9951 C   0  0  0  0  0  0  0  0  0  0  0  0
    0.9850    0.3714   -1.3004 C   0  0  0  0  0  0  0  0  0  0  0  0
    0.8127    0.8303    0.1174 C   0  0  0  0  0  0  0  0  0  0  0  0
    0.5828    2.1207    0.5381 C   0  0  0  0  0  0  0  0  0  0  0  0
    0.4131    2.1242    1.8755 N   0  0  0  0  0  0  0  0  0  0  0  0
    0.5378    0.8274    2.2324 C   0  0  0  0  0  0  0  0  0  0  0  0
    0.7748    0.0171    1.1840 N   0  0  0  0  0  0  0  0  0  0  0  0
   -1.2824   -3.0704   -1.3293 H   0  0  0  0  0  0  0  0  0  0  0  0
   -0.1873   -0.0507   -3.0701 H   0  0  0  0  0  0  0  0  0  0  0  0
   -0.9694    1.0984   -1.9369 H   0  0  0  0  0  0  0  0  0  0  0  0
    1.5719   -0.5727   -1.3212 H   0  0  0  0  0  0  0  0  0  0  0  0
    1.5648    1.1377   -1.8586 H   0  0  0  0  0  0  0  0  0  0  0  0
    0.5311    3.0022   -0.0872 H   0  0  0  0  0  0  0  0  0  0  0  0
    0.4478    0.4771    3.2521 H   0  0  0  0  0  0  0  0  0  0  0  0
    0.8905   -1.0206    1.1997 H   0  0  0  0  0  0  0  0  0  0  0  0
  1  2  2  0
  2  3  1  0
  2  4  1  0
  4  5  1  0
  5  6  1  0
  6  7  2  0
  7  8  1  0
  8  9  2  0
  9 10  1  0
  6 10  1  0
  3 11  1  0
  4 12  1  0
  4 13  1  0
  5 14  1  0
  5 15  1  0
  7 16  1  0
  9 17  1  0
 10 18  1  0
M  END
