8BOM_QU6_A_1001
     RDKit          3D

 35 39  0  0  0  0  0  0  0  0999 V2000
  -81.5717  -22.2994   87.8424 N   0  0  0  0  0  0  0  0  0  0  0  0
  -85.2164  -17.1469   88.3908 N   0  0  0  0  0  0  0  0  0  0  0  0
  -81.5288  -20.6417   84.5608 C   0  0  0  0  0  0  0  0  0  0  0  0
  -80.6393  -19.7443   83.8370 C   0  0  0  0  0  0  0  0  0  0  0  0
  -78.5550  -18.3762   83.7878 C   0  0  0  0  0  0  0  0  0  0  0  0
  -77.5240  -17.8452   84.5640 C   0  0  0  0  0  0  0  0  0  0  0  0
  -76.4967  -17.1062   83.9929 C   0  0  0  0  0  0  0  0  0  0  0  0
  -76.5223  -16.9111   82.6379 C   0  0  0  0  0  0  0  0  0  0  0  0
  -81.1773  -21.0667   85.8406 C   0  0  0  0  0  0  0  0  0  0  0  0
  -82.1626  -21.7262   89.0088 C   0  0  0  0  0  0  0  0  0  0  0  0
  -84.4583  -18.9224   89.7951 C   0  0  0  0  0  0  0  0  0  0  0  0
  -86.0721  -16.7492   89.3437 C   0  0  0  0  0  0  0  0  0  0  0  0
  -84.4067  -18.2253   88.5989 C   0  0  0  0  0  0  0  0  0  0  0  0
  -82.5305  -21.6462   91.4056 C   0  0  0  0  0  0  0  0  0  0  0  0
  -81.1894  -23.2508   90.7481 C   0  0  0  0  0  0  0  0  0  0  0  0
  -79.5418  -19.1150   84.4969 N   0  0  0  0  0  0  0  0  0  0  0  0
  -84.0780  -23.3275   86.7150 C   0  0  0  0  0  0  0  0  0  0  0  0
  -75.5262  -16.6262   84.8462 O   0  0  0  0  0  0  0  0  0  0  0  0
  -83.1826  -22.4041   86.0021 C   0  0  0  0  0  0  0  0  0  0  0  0
  -77.5491  -17.4436   81.8854 C   0  0  0  0  0  0  0  0  0  0  0  0
  -78.5776  -18.1779   82.4250 C   0  0  0  0  0  0  0  0  0  0  0  0
  -82.0063  -21.9446   86.5524 C   0  0  0  0  0  0  0  0  0  0  0  0
  -83.5762  -20.0765   89.9844 C   0  0  0  0  0  0  0  0  0  0  0  0
  -85.3333  -18.5327   90.7961 C   0  0  0  0  0  0  0  0  0  0  0  0
  -86.1406  -17.4323   90.5494 C   0  0  0  0  0  0  0  0  0  0  0  0
  -83.5297  -21.9743   84.7201 C   0  0  0  0  0  0  0  0  0  0  0  0
  -81.9417  -22.2167   90.2787 C   0  0  0  0  0  0  0  0  0  0  0  0
  -82.5351  -22.0248   93.8360 C   0  0  0  0  0  0  0  0  0  0  0  0
  -82.7147  -21.1195   84.0368 C   0  0  0  0  0  0  0  0  0  0  0  0
  -75.5221  -17.0256   86.1947 C   0  0  0  0  0  0  0  0  0  0  0  0
  -82.9894  -20.6540   88.9230 N   0  0  0  0  0  0  0  0  0  0  0  0
  -83.3410  -20.5770   91.2081 N   0  0  0  0  0  0  0  0  0  0  0  0
  -81.3035  -23.3181   92.0806 N   0  0  0  0  0  0  0  0  0  0  0  0
  -82.1178  -22.3442   92.4822 N   0  0  0  0  0  0  0  0  0  0  0  0
  -80.8774  -19.5492   82.6196 O   0  0  0  0  0  0  0  0  0  0  0  0
  3  4  1  0
  5  6  2  0
  6  7  1  0
  7  8  2  0
  3  9  2  0
  1 10  1  0
  2 12  2  0
 11 13  2  0
  2 13  1  0
  4 16  1  0
  5 16  1  0
  7 18  1  0
 17 19  1  6
  8 20  1  0
  5 21  1  0
 20 21  2  0
  1 22  1  0
 19 22  2  0
  9 22  1  0
 11 23  1  0
 11 24  1  0
 24 25  2  0
 12 25  1  0
 19 26  1  0
 15 27  1  0
 14 27  2  0
 10 27  1  0
 26 29  2  0
  3 29  1  0
 30 18  1  6
 10 31  2  0
 23 31  1  0
 14 32  1  0
 23 32  2  0
 15 33  2  0
 33 34  1  0
 28 34  1  1
 14 34  1  0
  4 35  2  0
M  END
$$$$
