2BSM_BSM_A_1224
     RDKit          3D

 27 29  0  0  0  0  0  0  0  0999 V2000
   35.2095    5.3690   21.4514 C   0  0  0  0  0  0  0  0  0  0  0  0
   35.5704    6.0942   22.5971 O   0  0  0  0  0  0  0  0  0  0  0  0
   34.6074    6.7018   23.3656 C   0  0  0  0  0  0  0  0  0  0  0  0
   33.3052    6.7241   22.8814 C   0  0  0  0  0  0  0  0  0  0  0  0
   32.2965    7.3241   23.6176 C   0  0  0  0  0  0  0  0  0  0  0  0
   34.8360    7.2942   24.5879 C   0  0  0  0  0  0  0  0  0  0  0  0
   33.8217    7.8925   25.3185 C   0  0  0  0  0  0  0  0  0  0  0  0
   32.5086    7.9200   24.8403 C   0  0  0  0  0  0  0  0  0  0  0  0
   31.5211    8.5499   25.6537 C   0  0  0  0  0  0  0  0  0  0  0  0
   30.8421    9.7207   25.3446 C   0  0  0  0  0  0  0  0  0  0  0  0
   31.0248   10.4927   24.1413 C   0  0  0  0  0  0  0  0  0  0  0  0
   32.1663   10.6190   23.6301 O   0  0  0  0  0  0  0  0  0  0  0  0
   29.9070   11.1229   23.5176 N   0  0  0  0  0  0  0  0  0  0  0  0
   30.1628   11.9524   22.3538 C   0  0  0  0  0  0  0  0  0  0  0  0
   29.1291   13.0803   22.3610 C   0  0  0  0  0  0  0  0  0  0  0  0
   30.0018    9.9838   26.3645 N   0  0  0  0  0  0  0  0  0  0  0  0
   30.1057    9.0690   27.2822 N   0  0  0  0  0  0  0  0  0  0  0  0
   31.0353    8.1587   26.8859 C   0  0  0  0  0  0  0  0  0  0  0  0
   31.3921    7.0020   27.6851 C   0  0  0  0  0  0  0  0  0  0  0  0
   31.6133    5.7439   27.1723 C   0  0  0  0  0  0  0  0  0  0  0  0
   31.9592    4.6824   27.9988 C   0  0  0  0  0  0  0  0  0  0  0  0
   32.2192    3.1229   27.2504 Cl  0  0  0  0  0  0  0  0  0  0  0  0
   32.0824    4.8948   29.3579 C   0  0  0  0  0  0  0  0  0  0  0  0
   32.4285    3.8271   30.1733 O   0  0  0  0  0  0  0  0  0  0  0  0
   31.8648    6.1513   29.8995 C   0  0  0  0  0  0  0  0  0  0  0  0
   31.5220    7.1843   29.0446 C   0  0  0  0  0  0  0  0  0  0  0  0
   31.3120    8.4261   29.6209 O   0  0  0  0  0  0  0  0  0  0  0  0
  1  2  1  6
  2  3  1  0
  3  4  2  0
  4  5  1  0
  3  6  1  0
  6  7  2  0
  5  8  2  0
  7  8  1  0
  8  9  1  0
  9 10  1  0
 10 11  1  0
 11 12  2  0
 11 13  1  0
 14 13  1  6
 15 14  1  6
 10 16  2  0
 16 17  1  0
  9 18  2  0
 17 18  1  0
 18 19  1  0
 19 20  2  0
 20 21  1  0
 21 22  1  0
 21 23  2  0
 23 24  1  0
 23 25  1  0
 19 26  1  0
 25 26  2  0
 26 27  1  0
M  END
$$$$
