1SQ5_PAU_A_6001
     RDKit          3D

 32 31  0  0  0  0  0  0  0  0999 V2000
   48.6378   -1.5877    7.7362 O   0  0  0  0  0  0  0  0  0  0  0  0
   48.6904    0.8416    8.3781 C   0  0  2  0  0  0  0  0  0  0  0  0
   48.1275   -0.6177    8.6477 C   0  0  0  0  0  0  0  0  0  0  0  0
   49.8366    1.1207    9.4419 C   0  0  0  0  0  0  0  0  0  0  0  0
   47.5087    1.7547    8.5772 C   0  0  0  0  0  0  0  0  0  0  0  0
   49.3751    0.9897    6.8433 C   0  0  2  0  0  0  0  0  0  0  0  0
   49.1010   -0.2288    6.0815 O   0  0  0  0  0  0  0  0  0  0  0  0
   50.9663    1.1455    6.8697 C   0  0  0  0  0  0  0  0  0  0  0  0
   51.7184    0.0427    6.8292 O   0  0  0  0  0  0  0  0  0  0  0  0
   51.5078    2.3491    6.9592 N   0  0  0  0  0  0  0  0  0  0  0  0
   50.8640    3.4891    7.6764 C   0  0  0  0  0  0  0  0  0  0  0  0
   49.8942    3.0063    8.7965 C   0  0  0  0  0  0  0  0  0  0  0  0
   48.7566    2.1173    8.2455 C   0  0  0  0  0  0  0  0  0  0  0  0
   48.5035    2.0005    6.9449 O   0  0  0  0  0  0  0  0  0  0  0  0
   48.0668    1.4810    9.1796 O   0  0  0  0  0  0  0  0  0  0  0  0
   48.2627   -2.4573    7.9458 H   0  0  0  0  0  0  0  0  0  0  0  0
   47.0614   -0.5939    8.5589 H   0  0  0  0  0  0  0  0  0  0  0  0
   48.4399   -0.9056    9.6299 H   0  0  0  0  0  0  0  0  0  0  0  0
   49.4350    1.0346   10.4301 H   0  0  0  0  0  0  0  0  0  0  0  0
   50.6235    0.4073    9.3131 H   0  0  0  0  0  0  0  0  0  0  0  0
   50.2233    2.1081    9.2990 H   0  0  0  0  0  0  0  0  0  0  0  0
   47.1154    1.6198    9.5632 H   0  0  0  0  0  0  0  0  0  0  0  0
   47.8185    2.7714    8.4530 H   0  0  0  0  0  0  0  0  0  0  0  0
   46.7529    1.5215    7.8567 H   0  0  0  0  0  0  0  0  0  0  0  0
   48.9462    1.8688    6.4102 H   0  0  0  0  0  0  0  0  0  0  0  0
   49.5147   -0.9862    6.5237 H   0  0  0  0  0  0  0  0  0  0  0  0
   52.3808    2.5008    6.5305 H   0  0  0  0  0  0  0  0  0  0  0  0
   51.6279    4.0941    8.1189 H   0  0  0  0  0  0  0  0  0  0  0  0
   50.2920    4.0450    6.9636 H   0  0  0  0  0  0  0  0  0  0  0  0
   50.4524    2.4442    9.5155 H   0  0  0  0  0  0  0  0  0  0  0  0
   49.4477    3.8725    9.2384 H   0  0  0  0  0  0  0  0  0  0  0  0
   49.0213    2.4725    6.3230 H   0  0  0  0  0  0  0  0  0  0  0  0
  1  3  1  0
  2  3  1  6
  2  4  1  0
  2  5  1  0
  2  6  1  0
  6  7  1  0
  6  8  1  0
  8  9  2  0
  8 10  1  0
 10 11  1  0
 11 12  1  0
 12 13  1  0
 13 14  1  0
 13 15  2  0
  1 16  1  0
  3 17  1  0
  3 18  1  0
  4 19  1  0
  4 20  1  0
  4 21  1  0
  5 22  1  0
  5 23  1  0
  5 24  1  0
  6 25  1  1
  7 26  1  0
 10 27  1  0
 11 28  1  0
 11 29  1  0
 12 30  1  0
 12 31  1  0
 14 32  1  0
M  END
