
     RDKit          3D

 27 29  0  0  0  0  0  0  0  0999 V2000
    0.3787   32.0697    0.9284 C   0  0  1  0  0  0  0  0  0  0  0  0
   -1.4290   32.6433    2.3016 C   0  0  0  0  0  0  0  0  0  0  0  0
   -1.7738   31.1962    2.5040 C   0  0  0  0  0  0  0  0  0  0  0  0
   -2.8019   30.8011    3.5196 C   0  0  0  0  0  0  0  0  0  0  0  0
   -3.2649   29.3340    3.4038 C   0  0  1  0  0  0  0  0  0  0  0  0
   -2.0538   28.4309    3.1208 C   0  0  0  0  0  0  0  0  0  0  0  0
   -1.3495   28.8389    1.8228 C   0  0  0  0  0  0  0  0  0  0  0  0
   -1.1262   30.3254    1.7140 C   0  0  0  0  0  0  0  0  0  0  0  0
   -4.0066   28.8594    4.6726 C   0  0  0  0  0  0  0  0  0  0  0  0
   -4.5964   26.4533    4.4890 C   0  0  0  0  0  0  0  0  0  0  0  0
   -5.4355   25.4230    4.0335 C   0  0  0  0  0  0  0  0  0  0  0  0
   -5.0248   24.0874    4.0448 C   0  0  0  0  0  0  0  0  0  0  0  0
   -6.5184   23.5431    2.3832 C   0  0  0  0  0  0  0  0  0  0  0  0
   -3.7882   23.7367    4.5837 C   0  0  0  0  0  0  0  0  0  0  0  0
   -2.6993   22.1616    3.3265 C   0  0  0  0  0  0  0  0  0  0  0  0
   -2.9301   24.7290    5.0682 C   0  0  0  0  0  0  0  0  0  0  0  0
   -0.5650   25.0559    5.2086 C   0  0  0  0  0  0  0  0  0  0  0  0
   -3.3506   26.0680    5.0282 C   0  0  0  0  0  0  0  0  0  0  0  0
   -0.2247   30.7787    0.7809 N   0  0  0  0  0  0  0  0  0  0  0  0
    0.8343   32.6544   -0.3039 N   0  0  0  0  0  0  0  0  0  0  0  0
   -0.4592   33.0759    1.5560 N   0  0  0  0  0  0  0  0  0  0  0  0
   -2.1528   33.6286    2.9270 N   0  0  0  0  0  0  0  0  0  0  0  0
   -4.9891   27.7908    4.3989 N   0  0  0  0  0  0  0  0  0  0  0  0
   -5.8641   23.1077    3.5782 O   0  0  0  0  0  0  0  0  0  0  0  0
   -3.3823   22.4241    4.5536 O   0  0  0  0  0  0  0  0  0  0  0  0
   -1.7198   24.2986    5.5506 O   0  0  0  0  0  0  0  0  0  0  0  0
   -6.3931   28.1476    4.6061 C   0  0  0  0  0  0  0  0  0  0  0  0
  2  3  1  0
  3  4  1  0
  4  5  1  0
  5  6  1  0
  6  7  1  0
  3  8  2  0
  7  8  1  0
  5  9  1  1
 10 11  4  0
 11 12  4  0
 12 14  4  0
 14 16  4  0
 10 18  4  0
 16 18  4  0
  1 19  1  0
  8 19  1  0
  1 20  1  6
  1 21  1  0
  2 21  2  0
  2 22  1  0
  9 23  1  0
 10 23  1  0
 12 24  1  0
 13 24  1  0
 14 25  1  0
 15 25  1  0
 16 26  1  0
 17 26  1  0
 23 27  1  0
M  END
