6Z1C_7EY_A_501
     RDKit          3D

 22 24  0  0  0  0  0  0  0  0999 V2000
    5.4150   -4.1320   20.7270 C   0  0  0  0  0  0  0  0  0  0  0  0
    6.5850   -4.3080   21.4820 C   0  0  0  0  0  0  0  0  0  0  0  0
    7.4500   -3.3060   21.7170 C   0  0  0  0  0  0  0  0  0  0  0  0
    7.2040   -2.1010   21.1850 N   0  0  0  0  0  0  0  0  0  0  0  0
    5.1570   -2.9370   20.2230 N   0  0  0  0  0  0  0  0  0  0  0  0
   12.4570   -0.6720   21.5070 O   0  0  0  0  0  0  0  0  0  0  0  0
   11.6810   -1.2830   22.2900 C   0  0  0  0  0  0  0  0  0  0  0  0
   12.1440   -2.0120   23.2070 O   0  0  0  0  0  0  0  0  0  0  0  0
   10.1790   -1.1010   22.0860 C   0  0  0  0  0  0  0  0  0  0  0  0
    9.3300   -1.7310   23.1890 C   0  0  0  0  0  0  0  0  0  0  0  0
    8.9400   -3.4420   22.7370 S   0  0  0  0  0  0  0  0  0  0  0  0
    6.0450   -1.9140   20.4480 C   0  0  0  0  0  0  0  0  0  0  0  0
    4.6390   -5.5100   20.7230 S   0  0  0  0  0  0  0  0  0  0  0  0
    5.5290   -6.5230   21.5090 C   0  0  0  0  0  0  0  0  0  0  0  0
    6.6800   -5.8070   22.0070 C   0  0  0  0  0  0  0  0  0  0  0  0
    7.6780   -6.6300   22.8040 C   0  0  0  0  0  0  0  0  0  0  0  0
    7.3980   -7.3410   23.9480 C   0  0  0  0  0  0  0  0  0  0  0  0
    8.4240   -8.0260   24.5740 C   0  0  0  0  0  0  0  0  0  0  0  0
    9.7180   -7.9900   24.0890 C   0  0  0  0  0  0  0  0  0  0  0  0
   10.8200   -8.7620   24.8080 C   0  0  0  0  0  0  0  0  0  0  0  0
   10.0010   -7.2700   22.9460 C   0  0  0  0  0  0  0  0  0  0  0  0
    8.9800   -6.5910   22.3210 C   0  0  0  0  0  0  0  0  0  0  0  0
  1  2  1  0
  2  3  2  0
  3  4  1  0
  1  5  2  0
  6  7  2  0
  7  8  1  0
  7  9  1  0
  9 10  1  0
  3 11  1  0
 10 11  1  0
  4 12  2  0
  5 12  1  0
  1 13  1  0
 13 14  1  0
  2 15  1  0
 14 15  2  0
 15 16  1  0
 16 17  2  0
 17 18  1  0
 18 19  2  0
 19 20  1  0
 19 21  1  0
 16 22  1  0
 21 22  2  0
M  END
$$$$
