7OKC_VFE_A_1001
     RDKit          3D

 49 51  0  0  0  0  0  0  0  0999 V2000
   -1.6155    1.3977   -0.9863 C   0  0  0  0  0  0  0  0  0  0  0  0
   -0.6749    2.2049   -0.3431 C   0  0  0  0  0  0  0  0  0  0  0  0
    1.9245   -0.9677    0.4665 C   0  0  0  0  0  0  0  0  0  0  0  0
   -0.2040   -1.1706    1.5934 C   0  0  0  0  0  0  0  0  0  0  0  0
    2.2172    0.1714    1.2206 C   0  0  0  0  0  0  0  0  0  0  0  0
    0.0829   -0.0265    2.3420 C   0  0  0  0  0  0  0  0  0  0  0  0
   -1.2441    0.6459   -2.1042 C   0  0  0  0  0  0  0  0  0  0  0  0
    0.6396    2.2574   -0.8139 C   0  0  0  0  0  0  0  0  0  0  0  0
    1.3895    3.4284    4.3491 C   0  0  0  0  0  0  0  0  0  0  0  0
    2.5252    2.7809    2.7016 C   0  0  0  0  0  0  0  0  0  0  0  0
    0.6971   -1.6316    0.6214 C   0  0  0  0  0  0  0  0  0  0  0  0
    1.2886    0.6696    2.1526 C   0  0  0  0  0  0  0  0  0  0  0  0
    0.0770    0.6764   -2.5703 C   0  0  0  0  0  0  0  0  0  0  0  0
    1.0244    1.4906   -1.9207 C   0  0  0  0  0  0  0  0  0  0  0  0
   -2.5189   -3.8845   -0.3714 C   0  0  0  0  0  0  0  0  0  0  0  0
   -0.2299   -2.5337   -2.6296 C   0  0  0  0  0  0  0  0  0  0  0  0
   -3.0908   -6.3125   -0.7596 C   0  0  0  0  0  0  0  0  0  0  0  0
    0.3825   -2.8661   -0.1900 C   0  0  0  0  0  0  0  0  0  0  0  0
   -2.0538   -2.5632   -0.9076 C   0  0  0  0  0  0  0  0  0  0  0  0
    0.9929   -1.7894   -3.0777 C   0  0  0  0  0  0  0  0  0  0  0  0
    2.4517    3.7850    3.5964 N   0  0  0  0  0  0  0  0  0  0  0  0
    0.8358    2.2715    3.9405 N   0  0  0  0  0  0  0  0  0  0  0  0
    1.5561    1.8678    2.9086 N   0  0  0  0  0  0  0  0  0  0  0  0
   -2.6839   -5.0026   -1.2519 N   0  0  0  0  0  0  0  0  0  0  0  0
   -0.6195   -2.5995   -1.2408 N   0  0  0  0  0  0  0  0  0  0  0  0
   -2.7385   -4.0109    0.8638 O   0  0  0  0  0  0  0  0  0  0  0  0
   -0.9581   -3.0693   -3.5087 O   0  0  0  0  0  0  0  0  0  0  0  0
    0.5176   -0.2989   -4.0190 S   0  0  0  0  0  0  0  0  0  0  0  0
    2.6962    1.5643   -2.4614 Cl  0  0  0  0  0  0  0  0  0  0  0  0
   -2.6338    1.3582   -0.6222 H   0  0  0  0  0  0  0  0  0  0  0  0
   -0.9628    2.7876    0.5224 H   0  0  0  0  0  0  0  0  0  0  0  0
    2.6701   -1.3379   -0.2239 H   0  0  0  0  0  0  0  0  0  0  0  0
   -1.1241   -1.7041    1.7891 H   0  0  0  0  0  0  0  0  0  0  0  0
    3.1724    0.6534    1.0716 H   0  0  0  0  0  0  0  0  0  0  0  0
   -0.6426    0.3176    3.0677 H   0  0  0  0  0  0  0  0  0  0  0  0
   -1.9838    0.0355   -2.6055 H   0  0  0  0  0  0  0  0  0  0  0  0
    1.3631    2.8838   -0.3077 H   0  0  0  0  0  0  0  0  0  0  0  0
    1.0215    4.0094    5.1840 H   0  0  0  0  0  0  0  0  0  0  0  0
    3.2618    2.7424    1.9113 H   0  0  0  0  0  0  0  0  0  0  0  0
   -2.3469   -6.6864   -0.0249 H   0  0  0  0  0  0  0  0  0  0  0  0
   -3.1529   -7.0302   -1.6045 H   0  0  0  0  0  0  0  0  0  0  0  0
   -4.0878   -6.2401   -0.2760 H   0  0  0  0  0  0  0  0  0  0  0  0
    0.0146   -3.6603    0.4933 H   0  0  0  0  0  0  0  0  0  0  0  0
    1.3095   -3.2826   -0.6415 H   0  0  0  0  0  0  0  0  0  0  0  0
   -2.6644   -2.3102   -1.8010 H   0  0  0  0  0  0  0  0  0  0  0  0
   -2.2525   -1.7561   -0.1754 H   0  0  0  0  0  0  0  0  0  0  0  0
    1.6391   -1.5024   -2.2321 H   0  0  0  0  0  0  0  0  0  0  0  0
    1.5888   -2.4479   -3.7433 H   0  0  0  0  0  0  0  0  0  0  0  0
   -2.5128   -4.8812   -2.2748 H   0  0  0  0  0  0  0  0  0  0  0  0
  1  2  2  0
  3  5  2  0
  4  6  1  0
  1  7  1  0
  2  8  1  0
  3 11  1  0
  4 11  2  0
  5 12  1  0
  6 12  2  0
  7 13  2  0
  8 14  2  0
 13 14  1  0
 11 18  1  0
 15 19  1  0
 16 20  1  0
  9 21  1  0
 10 21  2  0
  9 22  2  0
 22 23  1  0
 10 23  1  0
 12 23  1  0
 17 24  1  0
 15 24  1  0
 19 25  1  0
 18 25  1  0
 16 25  1  0
 15 26  2  0
 16 27  2  0
 20 28  1  0
 13 28  1  0
 14 29  1  0
  1 30  1  0
  2 31  1  0
  3 32  1  0
  4 33  1  0
  5 34  1  0
  6 35  1  0
  7 36  1  0
  8 37  1  0
  9 38  1  0
 10 39  1  0
 17 40  1  0
 17 41  1  0
 17 42  1  0
 18 43  1  0
 18 44  1  0
 19 45  1  0
 19 46  1  0
 20 47  1  0
 20 48  1  0
 24 49  1  0
M  END
