1XOZ_CIA_A_501
     RDKit          3D

 48 53  0  0  0  0  0  0  0  0999 V2000
   -3.4817   -0.6153    4.5899 C   0  0  0  0  0  0  0  0  0  0  0  0
   -3.8447    0.6335    4.0369 C   0  0  0  0  0  0  0  0  0  0  0  0
   -3.1090    1.1827    2.9707 C   0  0  0  0  0  0  0  0  0  0  0  0
   -2.0301    0.4477    2.4815 C   0  0  0  0  0  0  0  0  0  0  0  0
   -1.1175    0.7173    1.4844 C   0  0  0  0  0  0  0  0  0  0  0  0
   -0.2283   -0.3306    1.4915 C   0  0  0  0  0  0  0  0  0  0  0  0
   -0.5642   -1.2479    2.4299 N   0  0  0  0  0  0  0  0  0  0  0  0
   -1.6695   -0.7616    3.0243 C   0  0  0  0  0  0  0  0  0  0  0  0
   -2.3767   -1.3256    4.0850 C   0  0  0  0  0  0  0  0  0  0  0  0
    0.9742   -0.4015    0.5985 C   0  0  2  0  0  0  0  0  0  0  0  0
    0.9678    0.6702   -0.4319 N   0  0  0  0  0  0  0  0  0  0  0  0
    1.8318    0.5418   -1.5787 C   0  0  0  0  0  0  0  0  0  0  0  0
    3.0026    0.0932   -1.4501 O   0  0  0  0  0  0  0  0  0  0  0  0
    1.3218    0.9384   -2.9409 C   0  0  0  0  0  0  0  0  0  0  0  0
   -0.1528    0.9854   -2.9574 N   0  0  0  0  0  0  0  0  0  0  0  0
   -0.8635    1.4354   -1.7862 C   0  0  0  0  0  0  0  0  0  0  0  0
   -2.1162    1.5837   -1.8101 O   0  0  0  0  0  0  0  0  0  0  0  0
   -0.0595    1.7312   -0.5494 C   0  0  1  0  0  0  0  0  0  0  0  0
   -0.8932    1.9753    0.7327 C   0  0  0  0  0  0  0  0  0  0  0  0
   -0.8904    0.6484   -4.1758 C   0  0  0  0  0  0  0  0  0  0  0  0
    1.0076   -1.7730   -0.0496 C   0  0  0  0  0  0  0  0  0  0  0  0
   -0.0097   -2.1608   -0.9639 C   0  0  0  0  0  0  0  0  0  0  0  0
    0.0184   -3.4286   -1.5708 C   0  0  0  0  0  0  0  0  0  0  0  0
    1.0660   -4.2822   -1.2420 C   0  0  0  0  0  0  0  0  0  0  0  0
    1.3086   -5.5626   -1.7004 O   0  0  0  0  0  0  0  0  0  0  0  0
    2.5085   -6.0374   -1.0739 C   0  0  0  0  0  0  0  0  0  0  0  0
    2.9411   -4.9601   -0.2312 O   0  0  0  0  0  0  0  0  0  0  0  0
    2.0385   -3.9231   -0.3669 C   0  0  0  0  0  0  0  0  0  0  0  0
    2.0498   -2.6783    0.2553 C   0  0  0  0  0  0  0  0  0  0  0  0
   -4.0527   -1.0251    5.4128 H   0  0  0  0  0  0  0  0  0  0  0  0
   -4.6920    1.1734    4.4389 H   0  0  0  0  0  0  0  0  0  0  0  0
   -3.3760    2.1417    2.5464 H   0  0  0  0  0  0  0  0  0  0  0  0
   -0.0580   -2.1316    2.6621 H   0  0  0  0  0  0  0  0  0  0  0  0
   -2.0821   -2.2754    4.5122 H   0  0  0  0  0  0  0  0  0  0  0  0
    1.8733   -0.2583    1.2364 H   0  0  0  0  0  0  0  0  0  0  0  0
    1.7207    1.9431   -3.1945 H   0  0  0  0  0  0  0  0  0  0  0  0
    1.6957    0.2080   -3.6907 H   0  0  0  0  0  0  0  0  0  0  0  0
    0.4650    2.6925   -0.7504 H   0  0  0  0  0  0  0  0  0  0  0  0
   -1.8610    2.4690    0.5031 H   0  0  0  0  0  0  0  0  0  0  0  0
   -0.3273    2.6614    1.3995 H   0  0  0  0  0  0  0  0  0  0  0  0
   -1.5637   -0.2120   -3.9775 H   0  0  0  0  0  0  0  0  0  0  0  0
   -0.2012    0.3749   -5.0025 H   0  0  0  0  0  0  0  0  0  0  0  0
   -1.4952    1.5207   -4.5023 H   0  0  0  0  0  0  0  0  0  0  0  0
   -0.8175   -1.4805   -1.2017 H   0  0  0  0  0  0  0  0  0  0  0  0
   -0.7500   -3.7312   -2.2697 H   0  0  0  0  0  0  0  0  0  0  0  0
    2.2908   -6.9382   -0.4626 H   0  0  0  0  0  0  0  0  0  0  0  0
    3.2802   -6.2570   -1.8412 H   0  0  0  0  0  0  0  0  0  0  0  0
    2.8401   -2.4215    0.9489 H   0  0  0  0  0  0  0  0  0  0  0  0
  1  2  2  0
  2  3  1  0
  3  4  2  0
  4  5  1  0
  5  6  2  0
  6  7  1  0
  4  8  1  0
  7  8  1  0
  1  9  1  0
  8  9  2  0
  6 10  1  0
 10 11  1  0
 11 12  1  0
 12 13  2  0
 12 14  1  0
 14 15  1  0
 15 16  1  0
 16 17  2  0
 11 18  1  0
 16 18  1  0
  5 19  1  0
 18 19  1  0
 15 20  1  0
 10 21  1  0
 21 22  2  0
 22 23  1  0
 23 24  2  0
 24 25  1  0
 25 26  1  0
 26 27  1  0
 24 28  1  0
 27 28  1  0
 21 29  1  0
 28 29  2  0
  1 30  1  0
  2 31  1  0
  3 32  1  0
  7 33  1  0
  9 34  1  0
 10 35  1  1
 14 36  1  0
 14 37  1  0
 18 38  1  6
 19 39  1  0
 19 40  1  0
 20 41  1  0
 20 42  1  0
 20 43  1  0
 22 44  1  0
 23 45  1  0
 26 46  1  0
 26 47  1  0
 29 48  1  0
M  END
