1XOZ_CIA_A_501
     RDKit          3D

 29 34  0  0  0  0  0  0  0  0999 V2000
   42.8220   37.8770   10.1470 C   0  0  0  0  0  0  0  0  0  0  0  0
   42.9660   38.2730   11.5040 C   0  0  0  0  0  0  0  0  0  0  0  0
   43.8200   37.6730   12.4150 C   0  0  0  0  0  0  0  0  0  0  0  0
   44.5670   36.6040   11.8900 C   0  0  0  0  0  0  0  0  0  0  0  0
   45.5670   35.7220   12.5090 C   0  0  0  0  0  0  0  0  0  0  0  0
   45.9500   34.8780   11.5180 C   0  0  0  0  0  0  0  0  0  0  0  0
   45.3070   35.1450   10.3960 N   0  0  0  0  0  0  0  0  0  0  0  0
   44.4430   36.1950   10.5540 C   0  0  0  0  0  0  0  0  0  0  0  0
   43.5880   36.7990    9.6480 C   0  0  0  0  0  0  0  0  0  0  0  0
   46.9640   33.8340   11.7720 C   0  0  2  0  0  0  0  0  0  0  0  0
   47.2580   33.5750   13.1710 N   0  0  0  0  0  0  0  0  0  0  0  0
   48.1380   32.5760   13.3970 C   0  0  0  0  0  0  0  0  0  0  0  0
   48.6650   31.9330   12.5250 O   0  0  0  0  0  0  0  0  0  0  0  0
   48.4930   32.2400   14.7760 C   0  0  0  0  0  0  0  0  0  0  0  0
   48.1260   33.1800   15.8350 N   0  0  0  0  0  0  0  0  0  0  0  0
   47.2490   34.1540   15.6280 C   0  0  0  0  0  0  0  0  0  0  0  0
   46.8900   34.9790   16.4840 O   0  0  0  0  0  0  0  0  0  0  0  0
   46.6300   34.3090   14.2750 C   0  0  1  0  0  0  0  0  0  0  0  0
   46.0970   35.7020   13.9150 C   0  0  0  0  0  0  0  0  0  0  0  0
   48.7160   33.0530   17.1550 C   0  0  0  0  0  0  0  0  0  0  0  0
   48.2060   34.2980   10.9340 C   0  0  0  0  0  0  0  0  0  0  0  0
   48.7360   33.4820    9.8960 C   0  0  0  0  0  0  0  0  0  0  0  0
   49.8220   33.8410    9.1280 C   0  0  0  0  0  0  0  0  0  0  0  0
   50.4030   35.0570    9.4070 C   0  0  0  0  0  0  0  0  0  0  0  0
   51.4800   35.6170    8.7840 O   0  0  0  0  0  0  0  0  0  0  0  0
   51.8080   36.6900    9.6600 C   0  0  0  0  0  0  0  0  0  0  0  0
   50.6580   37.0270   10.4910 O   0  0  0  0  0  0  0  0  0  0  0  0
   49.9300   35.8680   10.3900 C   0  0  0  0  0  0  0  0  0  0  0  0
   48.8280   35.5130   11.1710 C   0  0  0  0  0  0  0  0  0  0  0  0
  1  2  2  0
  2  3  1  0
  3  4  2  0
  4  5  1  0
  5  6  2  0
  6  7  1  0
  4  8  1  0
  7  8  1  0
  1  9  1  0
  8  9  2  0
  6 10  1  0
 10 11  1  0
 11 12  1  0
 12 13  2  0
 12 14  1  0
 14 15  1  0
 15 16  1  0
 16 17  2  0
 11 18  1  0
 16 18  1  0
  5 19  1  0
 18 19  1  6
 15 20  1  0
 10 21  1  6
 21 22  2  0
 22 23  1  0
 23 24  2  0
 24 25  1  0
 25 26  1  0
 26 27  1  0
 24 28  1  0
 27 28  1  0
 21 29  1  0
 28 29  2  0
M  END
$$$$
