7NB4_U6Q_A_401
     RDKit          3D

 53 56  0  0  0  0  0  0  0  0999 V2000
   -1.8985   -2.8575    4.7939 C   0  0  0  0  0  0  0  0  0  0  0  0
   -0.5680   -2.1263    4.9396 C   0  0  0  0  0  0  0  0  0  0  0  0
   -0.5212   -0.9185    4.0483 C   0  0  0  0  0  0  0  0  0  0  0  0
   -0.1866   -0.9028    2.6842 C   0  0  0  0  0  0  0  0  0  0  0  0
   -0.3599    0.3745    2.1047 C   0  0  0  0  0  0  0  0  0  0  0  0
   -0.8418    1.3038    3.0105 C   0  0  0  0  0  0  0  0  0  0  0  0
   -1.0518    0.6164    4.5200 S   0  0  0  0  0  0  0  0  0  0  0  0
   -1.1582    2.5708    2.6579 N   0  0  0  0  0  0  0  0  0  0  0  0
   -0.9850    2.9543    1.3655 C   0  0  0  0  0  0  0  0  0  0  0  0
   -0.4922    2.0754    0.4463 N   0  0  0  0  0  0  0  0  0  0  0  0
   -0.1631    0.7915    0.7752 C   0  0  0  0  0  0  0  0  0  0  0  0
    0.3935   -0.0804   -0.2228 N   0  0  0  0  0  0  0  0  0  0  0  0
    0.0600   -0.0169   -1.6497 C   0  0  2  0  0  0  0  0  0  0  0  0
    0.8784    1.0900   -2.3419 C   0  0  0  0  0  0  0  0  0  0  0  0
    0.6973    1.0807   -3.8407 C   0  0  0  0  0  0  0  0  0  0  0  0
    1.2645    0.0557   -4.6154 C   0  0  0  0  0  0  0  0  0  0  0  0
    1.0910    0.0436   -6.0021 C   0  0  0  0  0  0  0  0  0  0  0  0
    0.3548    1.0543   -6.6254 C   0  0  0  0  0  0  0  0  0  0  0  0
   -0.2103    2.0785   -5.8639 C   0  0  0  0  0  0  0  0  0  0  0  0
   -0.0421    2.0931   -4.4774 C   0  0  0  0  0  0  0  0  0  0  0  0
   -1.4271    0.1305   -1.8464 C   0  0  0  0  0  0  0  0  0  0  0  0
   -2.1626   -0.8916   -1.8058 O   0  0  0  0  0  0  0  0  0  0  0  0
   -2.0041    1.3887   -2.0007 O   0  0  0  0  0  0  0  0  0  0  0  0
    0.1784   -2.1241    1.9389 C   0  0  0  0  0  0  0  0  0  0  0  0
    1.4869   -2.6693    1.9850 C   0  0  0  0  0  0  0  0  0  0  0  0
    2.5859   -1.9890    2.7687 C   0  0  0  0  0  0  0  0  0  0  0  0
    1.7823   -3.8022    1.1912 C   0  0  0  0  0  0  0  0  0  0  0  0
    3.3986   -4.4971    1.1222 Cl  0  0  0  0  0  0  0  0  0  0  0  0
    0.7850   -4.3926    0.4089 C   0  0  0  0  0  0  0  0  0  0  0  0
   -0.5027   -3.8632    0.3889 C   0  0  0  0  0  0  0  0  0  0  0  0
   -0.8041   -2.7329    1.1446 C   0  0  0  0  0  0  0  0  0  0  0  0
   -2.7390   -2.1808    5.0583 H   0  0  0  0  0  0  0  0  0  0  0  0
   -1.9180   -3.7372    5.4758 H   0  0  0  0  0  0  0  0  0  0  0  0
   -2.0354   -3.2150    3.7496 H   0  0  0  0  0  0  0  0  0  0  0  0
   -0.4393   -1.8095    5.9966 H   0  0  0  0  0  0  0  0  0  0  0  0
    0.2642   -2.8190    4.6924 H   0  0  0  0  0  0  0  0  0  0  0  0
   -1.2357    3.9640    1.0639 H   0  0  0  0  0  0  0  0  0  0  0  0
    1.1971   -0.6908    0.0465 H   0  0  0  0  0  0  0  0  0  0  0  0
    0.3589   -0.9878   -2.1041 H   0  0  0  0  0  0  0  0  0  0  0  0
    1.9563    0.9327   -2.1165 H   0  0  0  0  0  0  0  0  0  0  0  0
    0.6128    2.0842   -1.9271 H   0  0  0  0  0  0  0  0  0  0  0  0
    1.8414   -0.7307   -4.1471 H   0  0  0  0  0  0  0  0  0  0  0  0
    1.5283   -0.7494   -6.5931 H   0  0  0  0  0  0  0  0  0  0  0  0
    0.2215    1.0430   -7.6972 H   0  0  0  0  0  0  0  0  0  0  0  0
   -0.7798    2.8611   -6.3478 H   0  0  0  0  0  0  0  0  0  0  0  0
   -0.4873    2.8932   -3.9012 H   0  0  0  0  0  0  0  0  0  0  0  0
   -3.0057    1.4919   -2.1109 H   0  0  0  0  0  0  0  0  0  0  0  0
    3.1495   -1.3063    2.0984 H   0  0  0  0  0  0  0  0  0  0  0  0
    3.2833   -2.7352    3.2020 H   0  0  0  0  0  0  0  0  0  0  0  0
    2.1920   -1.4031    3.6239 H   0  0  0  0  0  0  0  0  0  0  0  0
    1.0113   -5.2607   -0.1963 H   0  0  0  0  0  0  0  0  0  0  0  0
   -1.2667   -4.3235   -0.2236 H   0  0  0  0  0  0  0  0  0  0  0  0
   -1.8052   -2.3223    1.1056 H   0  0  0  0  0  0  0  0  0  0  0  0
  1  2  1  0
  2  3  1  0
  3  4  2  0
  4  5  1  0
  5  6  2  0
  6  7  1  0
  3  7  1  0
  6  8  1  0
  8  9  2  0
  9 10  1  0
 10 11  2  0
  5 11  1  0
 11 12  1  0
 12 13  1  0
 13 14  1  0
 14 15  1  0
 15 16  2  0
 16 17  1  0
 17 18  2  0
 18 19  1  0
 15 20  1  0
 19 20  2  0
 13 21  1  0
 21 22  2  0
 21 23  1  0
  4 24  1  0
 24 25  2  0
 25 26  1  0
 25 27  1  0
 27 28  1  0
 27 29  2  0
 29 30  1  0
 24 31  1  0
 30 31  2  0
  1 32  1  0
  1 33  1  0
  1 34  1  0
  2 35  1  0
  2 36  1  0
  9 37  1  0
 12 38  1  0
 13 39  1  6
 14 40  1  0
 14 41  1  0
 16 42  1  0
 17 43  1  0
 18 44  1  0
 19 45  1  0
 20 46  1  0
 23 47  1  0
 26 48  1  0
 26 49  1  0
 26 50  1  0
 29 51  1  0
 30 52  1  0
 31 53  1  0
M  END
