7VWF_K55_B_502
     RDKit          3D

 60 61  0  0  0  0  0  0  0  0999 V2000
   -1.3101   -4.4675    5.0638 O   0  0  0  0  0  0  0  0  0  0  0  0
   -0.4472   -3.1584    3.3883 O   0  0  0  0  0  0  0  0  0  0  0  0
   -0.2452   -4.0187    4.2888 C   0  0  0  0  0  0  0  0  0  0  0  0
    1.1269   -4.6039    4.5033 C   0  0  1  0  0  0  0  0  0  0  0  0
    1.4780   -5.6192    3.3890 C   0  0  0  0  0  0  0  0  0  0  0  0
    2.1878   -5.0080    2.1781 C   0  0  0  0  0  0  0  0  0  0  0  0
    2.1906   -3.4965    4.7037 C   0  0  0  0  0  0  0  0  0  0  0  0
    1.6769   -2.1322    4.3124 C   0  0  0  0  0  0  0  0  0  0  0  0
    0.3200   -1.9510    4.0135 C   0  0  0  0  0  0  0  0  0  0  0  0
   -0.1865   -0.6766    3.7120 C   0  0  0  0  0  0  0  0  0  0  0  0
    0.6833    0.4336    3.6889 C   0  0  0  0  0  0  0  0  0  0  0  0
    2.0493    0.2421    3.9720 C   0  0  0  0  0  0  0  0  0  0  0  0
    2.5379   -1.0271    4.2857 C   0  0  0  0  0  0  0  0  0  0  0  0
    0.1643    1.7031    3.3879 O   0  0  0  0  0  0  0  0  0  0  0  0
   -0.9892    2.2764    3.9990 C   0  0  0  0  0  0  0  0  0  0  0  0
   -1.6520    1.2609    4.9348 C   0  0  0  0  0  0  0  0  0  0  0  0
   -1.4612   -0.1995    4.4929 C   0  0  0  0  0  0  0  0  0  0  0  0
   -0.2184   -0.4008    3.6267 C   0  0  0  0  0  0  0  0  0  0  0  0
   -1.6726   -0.5194    3.5026 C   0  0  0  0  0  0  0  0  0  0  0  0
   -2.3766   -1.6652    4.0740 N   0  0  0  0  0  0  0  0  0  0  0  0
   -1.9194   -3.0125    3.8852 C   0  0  0  0  0  0  0  0  0  0  0  0
   -2.7592   -3.9477    3.7836 O   0  0  0  0  0  0  0  0  0  0  0  0
   -0.4745   -3.3205    3.7982 C   0  0  0  0  0  0  0  0  0  0  0  0
    0.4687   -2.3250    3.4773 C   0  0  0  0  0  0  0  0  0  0  0  0
    1.8306   -2.6371    3.4186 C   0  0  0  0  0  0  0  0  0  0  0  0
    2.2805   -3.9374    3.7011 C   0  0  0  0  0  0  0  0  0  0  0  0
    1.3376   -4.9320    4.0066 C   0  0  0  0  0  0  0  0  0  0  0  0
   -0.0239   -4.6226    4.0699 C   0  0  0  0  0  0  0  0  0  0  0  0
    3.7444   -4.2814    3.5892 C   0  0  1  0  0  0  0  0  0  0  0  0
    0.0864   -1.0415    3.2591 F   0  0  0  0  0  0  0  0  0  0  0  0
    4.5189   -3.3394    4.2444 F   0  0  0  0  0  0  0  0  0  0  0  0
    3.9652   -5.5213    4.1591 F   0  0  0  0  0  0  0  0  0  0  0  0
    4.1387   -4.3184    2.2628 F   0  0  0  0  0  0  0  0  0  0  0  0
   -2.2445   -4.1013    4.9250 H   0  0  0  0  0  0  0  0  0  0  0  0
    1.0730   -5.1804    5.4528 H   0  0  0  0  0  0  0  0  0  0  0  0
    0.5410   -6.1046    3.0381 H   0  0  0  0  0  0  0  0  0  0  0  0
    2.1149   -6.4282    3.8071 H   0  0  0  0  0  0  0  0  0  0  0  0
    1.5542   -4.2335    1.6985 H   0  0  0  0  0  0  0  0  0  0  0  0
    3.1606   -4.5631    2.4686 H   0  0  0  0  0  0  0  0  0  0  0  0
    2.3852   -5.8048    1.4301 H   0  0  0  0  0  0  0  0  0  0  0  0
    2.5525   -3.4904    5.7545 H   0  0  0  0  0  0  0  0  0  0  0  0
    3.0753   -3.7277    4.0707 H   0  0  0  0  0  0  0  0  0  0  0  0
   -0.3522   -2.8008    4.0422 H   0  0  0  0  0  0  0  0  0  0  0  0
    2.7431    1.0712    3.9628 H   0  0  0  0  0  0  0  0  0  0  0  0
    3.5896   -1.1445    4.5140 H   0  0  0  0  0  0  0  0  0  0  0  0
   -0.7066    3.1892    4.5652 H   0  0  0  0  0  0  0  0  0  0  0  0
   -1.7216    2.5614    3.2130 H   0  0  0  0  0  0  0  0  0  0  0  0
   -1.2515    1.3953    5.9632 H   0  0  0  0  0  0  0  0  0  0  0  0
   -2.7421    1.4766    4.9719 H   0  0  0  0  0  0  0  0  0  0  0  0
   -2.3595   -0.5572    3.9461 H   0  0  0  0  0  0  0  0  0  0  0  0
   -1.3566   -0.8281    5.4036 H   0  0  0  0  0  0  0  0  0  0  0  0
    0.6825   -0.0058    4.1424 H   0  0  0  0  0  0  0  0  0  0  0  0
   -0.0722   -1.4855    3.4387 H   0  0  0  0  0  0  0  0  0  0  0  0
   -0.3366    0.1056    2.6462 H   0  0  0  0  0  0  0  0  0  0  0  0
   -2.0681    0.4190    3.9450 H   0  0  0  0  0  0  0  0  0  0  0  0
   -1.8763   -0.4710    2.4109 H   0  0  0  0  0  0  0  0  0  0  0  0
   -3.2599   -1.4914    4.6040 H   0  0  0  0  0  0  0  0  0  0  0  0
    2.5355   -1.8572    3.1584 H   0  0  0  0  0  0  0  0  0  0  0  0
    1.6528   -5.9502    4.1975 H   0  0  0  0  0  0  0  0  0  0  0  0
   -0.7285   -5.4079    4.3153 H   0  0  0  0  0  0  0  0  0  0  0  0
  1  3  1  0
  2  3  2  0
  3  4  1  0
  4  5  1  0
  5  6  1  0
  4  7  1  0
  7  8  1  0
  8  9  4  0
  9 10  4  0
 10 11  4  0
 11 12  4  0
  8 13  4  0
 12 13  4  0
 11 14  1  0
 14 15  1  0
 15 16  1  0
 16 17  1  0
 17 18  1  0
 10 19  1  0
 19 20  1  0
 20 21  1  0
 21 22  2  0
 21 23  1  0
 23 24  4  0
 24 25  4  0
 25 26  4  0
 26 27  4  0
 23 28  4  0
 27 28  4  0
 26 29  1  0
 24 30  1  0
 29 31  1  1
 29 32  1  0
 29 33  1  0
  1 34  1  0
  4 35  1  1
  5 36  1  0
  5 37  1  0
  6 38  1  0
  6 39  1  0
  6 40  1  0
  7 41  1  0
  7 42  1  0
  9 43  1  0
 12 44  1  0
 13 45  1  0
 15 46  1  0
 15 47  1  0
 16 48  1  0
 16 49  1  0
 17 50  1  0
 17 51  1  0
 18 52  1  0
 18 53  1  0
 18 54  1  0
 19 55  1  0
 19 56  1  0
 20 57  1  0
 25 58  1  0
 27 59  1  0
 28 60  1  0
M  END
