6ZPB_3D1_A_201
     RDKit          3D

 18 20  0  0  0  0  0  0  0  0999 V2000
   -4.1232   17.0241   -4.8624 O   0  0  0  0  0  0  0  0  0  0  0  0
   -3.1391   18.0391   -4.7673 C   0  0  0  0  0  0  0  0  0  0  0  0
   -3.5491   19.2401   -5.5731 C   0  0  1  0  0  0  0  0  0  0  0  0
   -2.7770   20.3752   -5.1284 O   0  0  0  0  0  0  0  0  0  0  0  0
   -1.9542   20.8496   -6.1800 C   0  0  1  0  0  0  0  0  0  0  0  0
   -0.6786   21.2463   -5.5979 N   0  0  0  0  0  0  0  0  0  0  0  0
   -0.3039   22.5144   -5.2197 C   0  0  0  0  0  0  0  0  0  0  0  0
   -0.9712   23.6563   -5.4204 N   0  0  0  0  0  0  0  0  0  0  0  0
   -0.3228   24.6938   -4.8809 C   0  0  0  0  0  0  0  0  0  0  0  0
    0.8450   24.7037   -4.2212 N   0  0  0  0  0  0  0  0  0  0  0  0
    1.5022   23.5335   -4.0442 C   0  0  0  0  0  0  0  0  0  0  0  0
    2.6771   23.5503   -3.3961 N   0  0  0  0  0  0  0  0  0  0  0  0
    0.9109   22.3672   -4.5644 C   0  0  0  0  0  0  0  0  0  0  0  0
    1.3077   21.0379   -4.5597 N   0  0  0  0  0  0  0  0  0  0  0  0
    0.3337   20.4211   -5.1850 C   0  0  0  0  0  0  0  0  0  0  0  0
   -1.8973   19.7272   -7.2090 C   0  0  0  0  0  0  0  0  0  0  0  0
   -3.2853   19.1195   -7.0770 C   0  0  2  0  0  0  0  0  0  0  0  0
   -4.2301   19.9175   -7.7921 O   0  0  0  0  0  0  0  0  0  0  0  0
  1  2  1  0
  3  2  1  1
  3  4  1  0
  4  5  1  0
  5  6  1  1
  6  7  1  0
  7  8  2  0
  8  9  1  0
  9 10  2  0
 10 11  1  0
 11 12  1  0
  7 13  1  0
 11 13  2  0
 13 14  1  0
  6 15  1  0
 14 15  2  0
  5 16  1  0
  3 17  1  0
 16 17  1  0
 17 18  1  6
M  END
