7KZ9_XN7_B_601
     RDKit          3D

 25 24  0  0  0  0  0  0  0  0999 V2000
  -46.3736   34.4859   -0.9067 C   0  0  1  0  0  0  0  0  0  0  0  0
  -45.0654   33.7580   -1.2200 C   0  0  2  0  0  0  0  0  0  0  0  0
  -46.1784   31.6430   -1.5201 C   0  0  2  0  0  0  0  0  0  0  0  0
  -47.6079   32.0644   -1.6635 C   0  0  0  0  0  0  0  0  0  0  0  0
  -48.1958   31.0596    0.5967 C   0  0  2  0  0  0  0  0  0  0  0  0
  -48.0368   29.5477    0.4358 C   0  0  2  0  0  0  0  0  0  0  0  0
  -45.3053   32.6426   -2.1439 N   0  0  0  0  0  0  0  0  0  0  0  0
  -48.5716   31.6757   -0.6744 N   0  0  0  0  0  0  0  0  0  0  0  0
  -47.3955   33.5683   -0.6216 O   0  0  0  0  0  0  0  0  0  0  0  0
  -47.9622   32.7264   -2.6765 O   0  0  0  0  0  0  0  0  0  0  0  0
  -46.7897   29.1261    0.9191 O   0  0  0  0  0  0  0  0  0  0  0  0
  -46.2201   35.1268   -0.0129 H   0  0  0  0  0  0  0  0  0  0  0  0
  -46.6558   35.1530   -1.7542 H   0  0  0  0  0  0  0  0  0  0  0  0
  -44.6090   33.3893   -0.2733 H   0  0  0  0  0  0  0  0  0  0  0  0
  -44.3704   34.4938   -1.6831 H   0  0  0  0  0  0  0  0  0  0  0  0
  -46.0535   30.6569   -2.0194 H   0  0  0  0  0  0  0  0  0  0  0  0
  -45.9263   31.5249   -0.4415 H   0  0  0  0  0  0  0  0  0  0  0  0
  -47.2268   31.4890    0.9306 H   0  0  0  0  0  0  0  0  0  0  0  0
  -48.9483   31.2838    1.3836 H   0  0  0  0  0  0  0  0  0  0  0  0
  -48.0985   29.2952   -0.6439 H   0  0  0  0  0  0  0  0  0  0  0  0
  -48.8671   29.0150    0.9545 H   0  0  0  0  0  0  0  0  0  0  0  0
  -45.8076   33.0211   -2.9819 H   0  0  0  0  0  0  0  0  0  0  0  0
  -49.5718   31.9453   -0.8135 H   0  0  0  0  0  0  0  0  0  0  0  0
  -48.1433   33.7673   -1.2435 H   0  0  0  0  0  0  0  0  0  0  0  0
  -46.7331   29.4238    1.8647 H   0  0  0  0  0  0  0  0  0  0  0  0
  1  2  1  0
  3  4  1  0
  5  6  1  0
  2  7  1  0
  3  7  1  0
  4  8  1  0
  5  8  1  0
  1  9  1  0
  4 10  2  0
  6 11  1  0
  1 12  1  1
  1 13  1  0
  2 14  1  1
  2 15  1  0
  3 16  1  6
  3 17  1  0
  5 18  1  1
  5 19  1  0
  6 20  1  6
  6 21  1  0
  7 22  1  0
  8 23  1  0
  9 24  1  0
 11 25  1  0
M  END
