7NP6_UK8_A_601
     RDKit          3D

 45 48  0  0  0  0  0  0  0  0999 V2000
   -5.4606   41.4661   14.4068 C   0  0  0  0  0  0  0  0  0  0  0  0
   -5.5463   44.2631   14.5980 C   0  0  0  0  0  0  0  0  0  0  0  0
   -5.6552   45.7495   14.7412 C   0  0  2  0  0  0  0  0  0  0  0  0
    0.6820   45.4582   13.3861 C   0  0  0  0  0  0  0  0  0  0  0  0
    1.3763   46.4478   12.7170 C   0  0  0  0  0  0  0  0  0  0  0  0
    2.2513   48.7927   12.5072 C   0  0  0  0  0  0  0  0  0  0  0  0
   -4.5141   42.2523   13.7621 C   0  0  0  0  0  0  0  0  0  0  0  0
   -6.4419   42.0800   15.1428 C   0  0  0  0  0  0  0  0  0  0  0  0
   -6.4853   43.4579   15.2376 C   0  0  0  0  0  0  0  0  0  0  0  0
   -1.6626   45.4924   12.4470 C   0  0  0  0  0  0  0  0  0  0  0  0
   -0.3467   46.0345   12.1139 C   0  0  0  0  0  0  0  0  0  0  0  0
    0.2121   47.2503   12.5435 C   0  0  0  0  0  0  0  0  0  0  0  0
    0.6041   45.4743   11.2871 C   0  0  0  0  0  0  0  0  0  0  0  0
    1.4851   47.7245   13.2524 C   0  0  0  0  0  0  0  0  0  0  0  0
    0.8903   47.9882   14.4823 C   0  0  0  0  0  0  0  0  0  0  0  0
    0.1969   47.0012   15.1662 C   0  0  0  0  0  0  0  0  0  0  0  0
    0.0926   45.7311   14.6112 C   0  0  0  0  0  0  0  0  0  0  0  0
   -1.3334   43.7952   14.3639 C   0  0  0  0  0  0  0  0  0  0  0  0
   -2.1283   44.5495   13.3522 C   0  0  0  0  0  0  0  0  0  0  0  0
   -3.5053   44.4456   13.1554 C   0  0  0  0  0  0  0  0  0  0  0  0
   -4.5224   43.6393   13.8602 C   0  0  0  0  0  0  0  0  0  0  0  0
   -6.8538   46.2221   14.4136 F   0  0  0  0  0  0  0  0  0  0  0  0
   -4.7892   46.3751   13.9569 F   0  0  0  0  0  0  0  0  0  0  0  0
   -5.4110   46.1941   15.9789 F   0  0  0  0  0  0  0  0  0  0  0  0
   -3.8869   45.2796   12.2138 N   0  0  0  0  0  0  0  0  0  0  0  0
    1.4131   47.4112   12.0074 N   0  0  0  0  0  4  0  0  0  0  0  0
    1.6391   46.3182   11.2469 N   0  0  0  0  0  0  0  0  0  0  0  0
    2.4200   48.6543   11.2734 O   0  0  0  0  0  0  0  0  0  0  0  0
    2.6027   49.7963   13.1520 O   0  0  0  0  0  0  0  0  0  0  0  0
   -0.5601   44.6762   15.2080 O   0  0  0  0  0  0  0  0  0  0  0  0
   -2.7278   45.9419   11.7450 O   0  0  0  0  0  0  0  0  0  0  0  0
   -3.2752   41.4731   12.8557 Cl  0  0  0  0  0  0  0  0  0  0  0  0
   -5.4259   40.4372   14.3334 H   0  0  0  0  0  0  0  0  0  0  0  0
    0.6019   44.5156   12.9739 H   0  0  0  0  0  0  0  0  0  0  0  0
    1.8190   46.2358   11.8093 H   0  0  0  0  0  0  0  0  0  0  0  0
   -7.1518   41.5096   15.6283 H   0  0  0  0  0  0  0  0  0  0  0  0
   -7.2317   43.9009   15.7960 H   0  0  0  0  0  0  0  0  0  0  0  0
   -0.2456   47.9194   13.1823 H   0  0  0  0  0  0  0  0  0  0  0  0
    0.5301   44.5720   10.7918 H   0  0  0  0  0  0  0  0  0  0  0  0
    0.9663   48.9324   14.8917 H   0  0  0  0  0  0  0  0  0  0  0  0
   -0.2379   47.2078   16.0790 H   0  0  0  0  0  0  0  0  0  0  0  0
   -2.0027   43.2284   14.9768 H   0  0  0  0  0  0  0  0  0  0  0  0
   -0.6533   43.1557   13.8411 H   0  0  0  0  0  0  0  0  0  0  0  0
    2.0199   48.1753   12.1376 H   0  0  0  0  0  0  0  0  0  0  0  0
    2.4473   49.8382   14.0750 H   0  0  0  0  0  0  0  0  0  0  0  0
  2  3  1  0
  4  5  4  0
  1  7  4  0
  1  8  4  0
  2  9  4  0
  8  9  4  0
 10 11  1  0
 11 12  4  0
 11 13  4  0
  5 14  4  0
  6 14  1  0
 14 15  4  0
 15 16  4  0
 16 17  4  0
  4 17  4  0
 10 19  4  0
 18 19  1  0
 19 20  4  0
 20 21  1  0
  7 21  4  0
  2 21  4  0
  3 22  1  1
  3 23  1  0
  3 24  1  0
 20 25  4  0
 12 26  4  0
 26 27  4  0
 13 27  4  0
  6 28  2  0
  6 29  1  0
 18 30  1  0
 17 30  1  0
 25 31  4  0
 10 31  4  0
  7 32  1  0
  1 33  1  0
  4 34  1  0
  5 35  1  0
  8 36  1  0
  9 37  1  0
 12 38  1  0
 13 39  1  0
 15 40  1  0
 16 41  1  0
 18 42  1  0
 18 43  1  0
 26 44  1  0
 29 45  1  0
M  CHG  1  26   1
M  END
