2BSM_BSM_A_1224
     RDKit          3D

 27 29  0  0  0  0  0  0  0  0999 V2000
   36.3177    5.6618   22.6167 C   0  0  0  0  0  0  0  0  0  0  0  0
   34.9151    5.6252   22.5348 O   0  0  0  0  0  0  0  0  0  0  0  0
   34.0882    6.3333   23.4062 C   0  0  0  0  0  0  0  0  0  0  0  0
   34.6707    7.0010   24.4871 C   0  0  0  0  0  0  0  0  0  0  0  0
   33.8567    7.7144   25.3698 C   0  0  0  0  0  0  0  0  0  0  0  0
   32.7198    6.3978   23.2406 C   0  0  0  0  0  0  0  0  0  0  0  0
   31.9296    7.1131   24.1306 C   0  0  0  0  0  0  0  0  0  0  0  0
   32.5019    7.7876   25.2202 C   0  0  0  0  0  0  0  0  0  0  0  0
   31.5914    8.4955   26.0829 C   0  0  0  0  0  0  0  0  0  0  0  0
   31.3412    8.0854   27.3982 C   0  0  0  0  0  0  0  0  0  0  0  0
   31.9435    6.9373   28.0633 C   0  0  0  0  0  0  0  0  0  0  0  0
   32.4199    5.9696   27.4188 O   0  0  0  0  0  0  0  0  0  0  0  0
   32.0152    6.8668   29.4775 N   0  0  0  0  0  0  0  0  0  0  0  0
   32.5621    5.6892   30.1225 C   0  0  0  0  0  0  0  0  0  0  0  0
   31.4103    4.7299   30.3832 C   0  0  0  0  0  0  0  0  0  0  0  0
   30.4553    8.9508   27.9183 N   0  0  0  0  0  0  0  0  0  0  0  0
   30.1517    9.8608   27.0024 N   0  0  0  0  0  0  0  0  0  0  0  0
   30.8362    9.6090   25.8560 C   0  0  0  0  0  0  0  0  0  0  0  0
   30.7623   10.3756   24.6441 C   0  0  0  0  0  0  0  0  0  0  0  0
   31.9607   10.7154   24.0266 C   0  0  0  0  0  0  0  0  0  0  0  0
   32.0178   11.4442   22.8600 C   0  0  0  0  0  0  0  0  0  0  0  0
   33.5797   11.8420   22.1312 Cl  0  0  0  0  0  0  0  0  0  0  0  0
   30.8276   11.8461   22.2921 C   0  0  0  0  0  0  0  0  0  0  0  0
   30.8715   12.5891   21.1029 O   0  0  0  0  0  0  0  0  0  0  0  0
   29.6034   11.5410   22.8551 C   0  0  0  0  0  0  0  0  0  0  0  0
   29.6019   10.8006   24.0376 C   0  0  0  0  0  0  0  0  0  0  0  0
   28.3897   10.4755   24.6309 O   0  0  0  0  0  0  0  0  0  0  0  0
  1  2  1  0
  2  3  1  0
  3  4  2  0
  4  5  1  0
  3  6  1  0
  6  7  2  0
  5  8  2  0
  7  8  1  0
  8  9  1  0
  9 10  1  0
 10 11  1  0
 11 12  2  0
 11 13  1  0
 13 14  1  0
 14 15  1  0
 10 16  2  0
 16 17  1  0
  9 18  2  0
 17 18  1  0
 18 19  1  0
 19 20  2  0
 20 21  1  0
 21 22  1  0
 21 23  2  0
 23 24  1  0
 23 25  1  0
 19 26  1  0
 25 26  2  0
 26 27  1  0
M  END
$$$$
