2BSM_BSM_A_1224
     RDKit          3D

 27 29  0  0  0  0  0  0  0  0999 V2000
   35.2796    5.3181   21.7848 C   0  0  0  0  0  0  0  0  0  0  0  0
   35.6063    6.0154   22.9606 O   0  0  0  0  0  0  0  0  0  0  0  0
   34.6495    6.6406   23.7594 C   0  0  0  0  0  0  0  0  0  0  0  0
   33.3031    6.5306   23.4009 C   0  0  0  0  0  0  0  0  0  0  0  0
   32.3320    7.1514   24.1898 C   0  0  0  0  0  0  0  0  0  0  0  0
   34.9832    7.3622   24.8872 C   0  0  0  0  0  0  0  0  0  0  0  0
   34.0010    7.9714   25.6570 C   0  0  0  0  0  0  0  0  0  0  0  0
   32.6456    7.8689   25.3078 C   0  0  0  0  0  0  0  0  0  0  0  0
   31.7106    8.5414   26.1727 C   0  0  0  0  0  0  0  0  0  0  0  0
   31.4788    8.1214   27.4883 C   0  0  0  0  0  0  0  0  0  0  0  0
   32.1255    6.9966   28.1515 C   0  0  0  0  0  0  0  0  0  0  0  0
   32.5047    5.9796   27.5185 O   0  0  0  0  0  0  0  0  0  0  0  0
   32.3535    7.0062   29.5508 N   0  0  0  0  0  0  0  0  0  0  0  0
   32.9245    5.8451   30.2049 C   0  0  0  0  0  0  0  0  0  0  0  0
   31.7749    5.0168   30.7592 C   0  0  0  0  0  0  0  0  0  0  0  0
   30.5617    8.9523   28.0107 N   0  0  0  0  0  0  0  0  0  0  0  0
   30.2220    9.8506   27.0959 N   0  0  0  0  0  0  0  0  0  0  0  0
   30.9133    9.6256   25.9481 C   0  0  0  0  0  0  0  0  0  0  0  0
   30.8080   10.3895   24.7367 C   0  0  0  0  0  0  0  0  0  0  0  0
   31.9913   10.7690   24.1135 C   0  0  0  0  0  0  0  0  0  0  0  0
   32.0184   11.4994   22.9468 C   0  0  0  0  0  0  0  0  0  0  0  0
   33.5626   11.9489   22.2103 Cl  0  0  0  0  0  0  0  0  0  0  0  0
   30.8128   11.8616   22.3849 C   0  0  0  0  0  0  0  0  0  0  0  0
   30.8260   12.6059   21.1957 O   0  0  0  0  0  0  0  0  0  0  0  0
   29.6021   11.5160   22.9539 C   0  0  0  0  0  0  0  0  0  0  0  0
   29.6311   10.7758   24.1361 C   0  0  0  0  0  0  0  0  0  0  0  0
   28.4334   10.4105   24.7353 O   0  0  0  0  0  0  0  0  0  0  0  0
  1  2  1  0
  2  3  1  0
  3  4  2  0
  4  5  1  0
  3  6  1  0
  6  7  2  0
  5  8  2  0
  7  8  1  0
  8  9  1  0
  9 10  1  0
 10 11  1  0
 11 12  2  0
 11 13  1  0
 13 14  1  0
 14 15  1  0
 10 16  2  0
 16 17  1  0
  9 18  2  0
 17 18  1  0
 18 19  1  0
 19 20  2  0
 20 21  1  0
 21 22  1  0
 21 23  2  0
 23 24  1  0
 23 25  1  0
 19 26  1  0
 25 26  2  0
 26 27  1  0
M  END
$$$$
