2BSM_BSM_A_1224
     RDKit          3D

 27 29  0  0  0  0  0  0  0  0999 V2000
   34.8925    5.2858   21.5597 C   0  0  0  0  0  0  0  0  0  0  0  0
   35.2378    5.7636   22.8355 O   0  0  0  0  0  0  0  0  0  0  0  0
   34.3437    6.4570   23.6506 C   0  0  0  0  0  0  0  0  0  0  0  0
   34.8306    7.0686   24.8092 C   0  0  0  0  0  0  0  0  0  0  0  0
   33.9483    7.7666   25.6369 C   0  0  0  0  0  0  0  0  0  0  0  0
   32.9997    6.5603   23.3556 C   0  0  0  0  0  0  0  0  0  0  0  0
   32.1403    7.2593   24.1931 C   0  0  0  0  0  0  0  0  0  0  0  0
   32.6165    7.8776   25.3595 C   0  0  0  0  0  0  0  0  0  0  0  0
   31.6400    8.5731   26.1578 C   0  0  0  0  0  0  0  0  0  0  0  0
   31.2848    8.1423   27.4420 C   0  0  0  0  0  0  0  0  0  0  0  0
   31.8312    6.9824   28.1344 C   0  0  0  0  0  0  0  0  0  0  0  0
   32.5655    6.1451   27.5526 O   0  0  0  0  0  0  0  0  0  0  0  0
   31.5519    6.7512   29.5051 N   0  0  0  0  0  0  0  0  0  0  0  0
   32.0507    5.5578   30.1601 C   0  0  0  0  0  0  0  0  0  0  0  0
   33.1154    5.9904   31.1572 C   0  0  0  0  0  0  0  0  0  0  0  0
   30.3605    9.0007   27.9034 N   0  0  0  0  0  0  0  0  0  0  0  0
   30.1318    9.9259   26.9809 N   0  0  0  0  0  0  0  0  0  0  0  0
   30.9060    9.6915   25.8892 C   0  0  0  0  0  0  0  0  0  0  0  0
   30.9300   10.4778   24.6879 C   0  0  0  0  0  0  0  0  0  0  0  0
   32.1739   10.7915   24.1521 C   0  0  0  0  0  0  0  0  0  0  0  0
   32.3247   11.5354   23.0034 C   0  0  0  0  0  0  0  0  0  0  0  0
   33.9399   11.8980   22.3801 Cl  0  0  0  0  0  0  0  0  0  0  0  0
   31.1843   11.9802   22.3692 C   0  0  0  0  0  0  0  0  0  0  0  0
   31.3237   12.7391   21.1976 O   0  0  0  0  0  0  0  0  0  0  0  0
   29.9190   11.7028   22.8498 C   0  0  0  0  0  0  0  0  0  0  0  0
   29.8224   10.9454   24.0174 C   0  0  0  0  0  0  0  0  0  0  0  0
   28.5667   10.6471   24.5286 O   0  0  0  0  0  0  0  0  0  0  0  0
  1  2  1  0
  2  3  1  0
  3  4  2  0
  4  5  1  0
  3  6  1  0
  6  7  2  0
  5  8  2  0
  7  8  1  0
  8  9  1  0
  9 10  1  0
 10 11  1  0
 11 12  2  0
 11 13  1  0
 13 14  1  0
 14 15  1  0
 10 16  2  0
 16 17  1  0
  9 18  2  0
 17 18  1  0
 18 19  1  0
 19 20  2  0
 20 21  1  0
 21 22  1  0
 21 23  2  0
 23 24  1  0
 23 25  1  0
 19 26  1  0
 25 26  2  0
 26 27  1  0
M  END
$$$$
