7AN5_RDH_A_301
     RDKit          3D

 23 23  0  0  0  0  0  0  0  0999 V2000
    3.6672   -1.6908   -1.0047 C   0  0  0  0  0  0  0  0  0  0  0  0
    2.9597   -1.0848   -0.0520 C   0  0  0  0  0  0  0  0  0  0  0  0
    1.1159    0.5318    0.3910 C   0  0  0  0  0  0  0  0  0  0  0  0
    0.2795    1.5117   -0.1529 C   0  0  0  0  0  0  0  0  0  0  0  0
   -0.7024    2.1174    0.6332 C   0  0  0  0  0  0  0  0  0  0  0  0
   -0.8498    1.7568    1.9746 C   0  0  0  0  0  0  0  0  0  0  0  0
   -0.0068    0.7876    2.5471 C   0  0  0  0  0  0  0  0  0  0  0  0
   -0.1500    0.4099    3.9708 C   0  0  0  0  0  0  0  0  0  0  0  0
    0.9805    0.1834    1.7481 C   0  0  0  0  0  0  0  0  0  0  0  0
    3.0445   -1.5464    1.3527 C   0  0  0  0  0  0  0  0  0  0  0  0
    2.0976   -0.0441   -0.4289 O   0  0  0  0  0  0  0  0  0  0  0  0
   -1.4112    0.3512    4.5584 O   0  0  0  0  0  0  0  0  0  0  0  0
    0.8670    0.1389    4.6651 O   0  0  0  0  0  0  0  0  0  0  0  0
    3.4576   -0.7649    2.2505 O   0  0  0  0  0  0  0  0  0  0  0  0
    2.6497   -2.8365    1.6980 O   0  0  0  0  0  0  0  0  0  0  0  0
    4.3306   -2.5169   -0.7820 H   0  0  0  0  0  0  0  0  0  0  0  0
    3.5864   -1.3625   -2.0331 H   0  0  0  0  0  0  0  0  0  0  0  0
    0.3866    1.7987   -1.1913 H   0  0  0  0  0  0  0  0  0  0  0  0
   -1.3508    2.8692    0.2019 H   0  0  0  0  0  0  0  0  0  0  0  0
   -1.6190    2.2403    2.5638 H   0  0  0  0  0  0  0  0  0  0  0  0
    1.6542   -0.5442    2.1813 H   0  0  0  0  0  0  0  0  0  0  0  0
   -1.5202    0.0944    5.5323 H   0  0  0  0  0  0  0  0  0  0  0  0
    2.6992   -3.1562    2.6580 H   0  0  0  0  0  0  0  0  0  0  0  0
  1  2  2  3
  3  4  4  0
  4  5  4  0
  5  6  4  0
  6  7  4  0
  7  8  1  0
  3  9  4  0
  7  9  4  0
  2 10  1  0
  2 11  1  0
  3 11  1  0
  8 12  1  0
  8 13  2  0
 10 14  2  0
 10 15  1  0
  1 16  1  0
  1 17  1  0
  4 18  1  0
  5 19  1  0
  6 20  1  0
  9 21  1  0
 12 22  1  0
 15 23  1  0
M  END
