1LRH_NLA_D_8190
     RDKit          3D

 14 15  0  0  0  0  0  0  0  0999 V2000
   36.5730   58.0680   78.1320 C   0  0  0  0  0  0  0  0  0  0  0  0
   36.4670   58.4150   76.7810 C   0  0  0  0  0  0  0  0  0  0  0  0
   37.5850   58.3010   75.8920 C   0  0  0  0  0  0  0  0  0  0  0  0
   38.7980   57.8140   76.4310 C   0  0  0  0  0  0  0  0  0  0  0  0
   38.9440   57.4580   77.7310 C   0  0  0  0  0  0  0  0  0  0  0  0
   37.8540   57.5630   78.6100 C   0  0  0  0  0  0  0  0  0  0  0  0
   37.9290   57.1890   79.9970 C   0  0  0  0  0  0  0  0  0  0  0  0
   36.8370   57.3360   80.8310 C   0  0  0  0  0  0  0  0  0  0  0  0
   35.5960   57.8100   80.3680 C   0  0  0  0  0  0  0  0  0  0  0  0
   35.4490   58.1880   79.0530 C   0  0  0  0  0  0  0  0  0  0  0  0
   35.1400   58.9890   76.2140 C   0  0  0  0  0  0  0  0  0  0  0  0
   35.4320   59.9670   75.1260 C   0  0  0  0  0  0  0  0  0  0  0  0
   35.6330   61.2430   75.3280 O   0  0  0  0  0  0  0  0  0  0  0  0
   35.5730   59.3500   73.9620 O   0  0  0  0  0  0  0  0  0  0  0  0
  1  2  2  0
  2  3  1  0
  3  4  2  0
  4  5  1  0
  1  6  1  0
  5  6  2  0
  6  7  1  0
  7  8  2  0
  8  9  1  0
  1 10  1  0
  9 10  2  0
  2 11  1  0
 11 12  1  0
 12 13  2  0
 12 14  1  0
M  END
$$$$
