1P62_GEO_B_302
     RDKit          3D

 29 30  0  0  0  0  0  0  0  0999 V2000
   -1.7707   -3.9873    1.0163 O   0  0  0  0  0  0  0  0  0  0  0  0
   -0.8103   -3.0992    0.5074 C   0  0  0  0  0  0  0  0  0  0  0  0
   -0.6211   -1.9093    1.4587 C   0  0  1  0  0  0  0  0  0  0  0  0
    0.5170   -1.1756    1.0522 O   0  0  0  0  0  0  0  0  0  0  0  0
    0.1161    0.1588    0.8273 C   0  0  1  0  0  0  0  0  0  0  0  0
    0.8155    0.7333   -0.3420 N   0  0  0  0  0  0  0  0  0  0  0  0
    1.1308   -0.0622   -1.4120 C   0  0  0  0  0  0  0  0  0  0  0  0
    1.7663    0.4696   -2.5316 C   0  0  0  0  0  0  0  0  0  0  0  0
    2.0630    1.8304   -2.5479 C   0  0  0  0  0  0  0  0  0  0  0  0
    1.7211    2.6013   -1.4854 N   0  0  0  0  0  0  0  0  0  0  0  0
    1.1017    2.0757   -0.3962 C   0  0  0  0  0  0  0  0  0  0  0  0
    0.7935    2.8409    0.5572 O   0  0  0  0  0  0  0  0  0  0  0  0
    2.7135    2.4194   -3.6741 N   0  0  0  0  0  0  0  0  0  0  0  0
   -1.3941    0.1863    0.6431 C   0  0  0  0  0  0  0  0  0  0  0  0
   -1.7437   -0.0208   -0.6830 F   0  0  0  0  0  0  0  0  0  0  0  0
   -1.9358    1.3844    1.0816 F   0  0  0  0  0  0  0  0  0  0  0  0
   -1.8461   -0.9810    1.4778 C   0  0  2  0  0  0  0  0  0  0  0  0
   -2.1126   -0.5584    2.7913 O   0  0  0  0  0  0  0  0  0  0  0  0
   -2.6296   -3.7797    0.5645 H   0  0  0  0  0  0  0  0  0  0  0  0
    0.1528   -3.6461    0.4215 H   0  0  0  0  0  0  0  0  0  0  0  0
   -1.0815   -2.7448   -0.5148 H   0  0  0  0  0  0  0  0  0  0  0  0
   -0.4286   -2.3130    2.4779 H   0  0  0  0  0  0  0  0  0  0  0  0
    0.3791    0.7302    1.7469 H   0  0  0  0  0  0  0  0  0  0  0  0
    0.8861   -1.1173   -1.4115 H   0  0  0  0  0  0  0  0  0  0  0  0
    2.0173   -0.1665   -3.3711 H   0  0  0  0  0  0  0  0  0  0  0  0
    2.9816    1.8422   -4.5023 H   0  0  0  0  0  0  0  0  0  0  0  0
    2.9300    3.4409   -3.6813 H   0  0  0  0  0  0  0  0  0  0  0  0
   -2.7604   -1.4410    1.0357 H   0  0  0  0  0  0  0  0  0  0  0  0
   -2.5841   -1.3092    3.2383 H   0  0  0  0  0  0  0  0  0  0  0  0
  1  2  1  0
  3  2  1  0
  3  4  1  0
  4  5  1  0
  5  6  1  0
  6  7  1  0
  7  8  2  0
  8  9  1  0
  9 10  2  0
  6 11  1  0
 10 11  1  0
 11 12  2  0
  9 13  1  0
  5 14  1  0
 14 15  1  0
 14 16  1  0
  3 17  1  0
 14 17  1  0
 17 18  1  0
  1 19  1  0
  2 20  1  0
  2 21  1  0
  3 22  1  1
  5 23  1  1
  7 24  1  0
  8 25  1  0
 13 26  1  0
 13 27  1  0
 17 28  1  6
 18 29  1  0
M  END
