7MGT_ZD4_A_403
     RDKit          3D

 42 44  0  0  0  0  0  0  0  0999 V2000
    1.0984   -1.8479    2.3825 C   0  0  2  0  0  0  0  0  0  0  0  0
    2.2701   -0.4419   -1.6739 C   0  0  0  0  0  0  0  0  0  0  0  0
    0.1523   -1.4999    3.5363 C   0  0  1  0  0  0  0  0  0  0  0  0
   -1.1338   -1.1757    2.8194 C   0  0  1  0  0  0  0  0  0  0  0  0
    2.1687   -0.3248    0.6573 C   0  0  0  0  0  0  0  0  0  0  0  0
   -1.0263   -1.9999    1.5332 C   0  0  1  0  0  0  0  0  0  0  0  0
    3.0204    0.7261    0.6716 C   0  0  0  0  0  0  0  0  0  0  0  0
   -1.5483   -1.2234    0.3196 C   0  0  0  0  0  0  0  0  0  0  0  0
    3.5178    1.2361   -0.5227 C   0  0  0  0  0  0  0  0  0  0  0  0
    2.5919    0.1885    2.6703 C   0  0  0  0  0  0  0  0  0  0  0  0
    3.1223    0.6326   -1.6830 N   0  0  0  0  0  0  0  0  0  0  0  0
    1.7901   -0.9349   -0.4931 N   0  0  0  0  0  0  0  0  0  0  0  0
    4.4254    2.3377   -0.5501 N   0  0  0  0  0  0  0  0  0  0  0  0
    3.3145    1.0775    1.9354 N   0  0  0  0  0  0  0  0  0  0  0  0
    1.8544   -0.6729    1.9164 N   0  0  0  0  0  0  0  0  0  0  0  0
   -1.7597   -1.9008   -3.4222 O   0  0  0  0  0  0  0  0  0  0  0  0
   -6.2044   -0.4811   -3.0584 O   0  0  0  0  0  0  0  0  0  0  0  0
    0.0070   -2.5908    4.4179 O   0  0  0  0  0  0  0  0  0  0  0  0
   -1.5994    0.4129   -2.2061 O   0  0  0  0  0  0  0  0  0  0  0  0
   -3.9129   -0.4113   -4.5859 O   0  0  0  0  0  0  0  0  0  0  0  0
   -2.2564   -1.5398    3.5807 O   0  0  0  0  0  0  0  0  0  0  0  0
   -3.8238   -1.2695   -1.9224 O   0  0  0  0  0  0  0  0  0  0  0  0
   -4.2990    1.2361   -2.5786 O   0  0  0  0  0  0  0  0  0  0  0  0
    0.3217   -2.3753    1.3266 O   0  0  0  0  0  0  0  0  0  0  0  0
   -1.3850   -2.0047   -0.8401 O   0  0  0  0  0  0  0  0  0  0  0  0
   -2.1360   -1.1947   -2.1389 P   0  0  1  0  0  5  0  0  0  0  0  0
   -4.5379   -0.1890   -3.0267 P   0  0  0  0  0  5  0  0  0  0  0  0
    1.8130   -1.2023   -3.1824 Cl  0  0  0  0  0  0  0  0  0  0  0  0
    1.8277   -2.6205    2.7101 H   0  0  0  0  0  0  0  0  0  0  0  0
    0.4918   -0.6236    4.1266 H   0  0  0  0  0  0  0  0  0  0  0  0
   -1.1521   -0.0800    2.6053 H   0  0  0  0  0  0  0  0  0  0  0  0
   -1.6255   -2.9321    1.6382 H   0  0  0  0  0  0  0  0  0  0  0  0
   -0.9699   -0.2764    0.2260 H   0  0  0  0  0  0  0  0  0  0  0  0
   -2.6233   -0.9881    0.4982 H   0  0  0  0  0  0  0  0  0  0  0  0
    2.6387    0.1536    3.7506 H   0  0  0  0  0  0  0  0  0  0  0  0
    4.7361    2.8009    0.3327 H   0  0  0  0  0  0  0  0  0  0  0  0
    4.7891    2.6948   -1.4613 H   0  0  0  0  0  0  0  0  0  0  0  0
   -6.5637    0.1655   -3.7171 H   0  0  0  0  0  0  0  0  0  0  0  0
   -0.2808   -3.3827    3.8912 H   0  0  0  0  0  0  0  0  0  0  0  0
   -0.6164    0.3501   -2.3022 H   0  0  0  0  0  0  0  0  0  0  0  0
   -4.3697    0.2686   -5.1425 H   0  0  0  0  0  0  0  0  0  0  0  0
   -3.0455   -1.1571    3.1157 H   0  0  0  0  0  0  0  0  0  0  0  0
  1  3  1  0
  3  4  1  0
  4  6  1  0
  5  7  1  0
  6  8  1  0
  7  9  2  0
  2 11  2  0
  9 11  1  0
  2 12  1  0
  5 12  2  0
  9 13  1  0
  7 14  1  0
 10 14  2  0
  5 15  1  0
  1 15  1  0
 10 15  1  0
  3 18  1  0
  4 21  1  0
  6 24  1  0
  1 24  1  0
  8 25  1  0
 16 26  2  0
 26 22  1  1
 26 19  1  0
 25 26  1  0
 23 27  2  0
 17 27  1  0
 22 27  1  0
 20 27  1  0
  2 28  1  0
  1 29  1  1
  3 30  1  1
  4 31  1  6
  6 32  1  1
  8 33  1  0
  8 34  1  0
 10 35  1  0
 13 36  1  0
 13 37  1  0
 17 38  1  0
 18 39  1  0
 19 40  1  0
 20 41  1  0
 21 42  1  0
M  END
