7NFB_GEN_A_601
     RDKit          3D

 30 32  0  0  0  0  0  0  0  0999 V2000
    0.6886   -1.0497    3.4262 C   0  0  0  0  0  0  0  0  0  0  0  0
    0.4274    0.0144    4.2859 C   0  0  0  0  0  0  0  0  0  0  0  0
    0.6256   -0.1444    5.6558 O   0  0  0  0  0  0  0  0  0  0  0  0
   -0.0210    1.2318    3.7674 C   0  0  0  0  0  0  0  0  0  0  0  0
   -0.2061    1.4054    2.3903 C   0  0  0  0  0  0  0  0  0  0  0  0
   -0.5577    2.6896    1.9641 O   0  0  0  0  0  0  0  0  0  0  0  0
   -0.0018    0.3028    1.5076 C   0  0  0  0  0  0  0  0  0  0  0  0
   -0.2792    0.3253    0.1181 C   0  0  0  0  0  0  0  0  0  0  0  0
   -0.8381    1.3182   -0.4188 O   0  0  0  0  0  0  0  0  0  0  0  0
    0.0170   -0.8020   -0.6729 C   0  0  0  0  0  0  0  0  0  0  0  0
    0.5246   -1.9430   -0.0411 C   0  0  0  0  0  0  0  0  0  0  0  0
    0.7201   -1.9634    1.2689 O   0  0  0  0  0  0  0  0  0  0  0  0
    0.4757   -0.9193    2.0517 C   0  0  0  0  0  0  0  0  0  0  0  0
   -0.2138   -0.8130   -2.1404 C   0  0  0  0  0  0  0  0  0  0  0  0
    0.2508    0.2422   -2.9456 C   0  0  0  0  0  0  0  0  0  0  0  0
    0.0392    0.2237   -4.3275 C   0  0  0  0  0  0  0  0  0  0  0  0
   -0.6337   -0.8475   -4.9226 C   0  0  0  0  0  0  0  0  0  0  0  0
   -0.8378   -0.8520   -6.3006 O   0  0  0  0  0  0  0  0  0  0  0  0
   -1.0946   -1.9057   -4.1285 C   0  0  0  0  0  0  0  0  0  0  0  0
   -0.8841   -1.8905   -2.7464 C   0  0  0  0  0  0  0  0  0  0  0  0
    1.0462   -1.9892    3.8298 H   0  0  0  0  0  0  0  0  0  0  0  0
    0.4477    0.6104    6.3082 H   0  0  0  0  0  0  0  0  0  0  0  0
   -0.1971    2.0647    4.4370 H   0  0  0  0  0  0  0  0  0  0  0  0
   -0.4361    3.0345    1.0238 H   0  0  0  0  0  0  0  0  0  0  0  0
    0.7638   -2.8277   -0.6174 H   0  0  0  0  0  0  0  0  0  0  0  0
    0.7904    1.0725   -2.5073 H   0  0  0  0  0  0  0  0  0  0  0  0
    0.4026    1.0411   -4.9374 H   0  0  0  0  0  0  0  0  0  0  0  0
   -1.3214   -1.6138   -6.7617 H   0  0  0  0  0  0  0  0  0  0  0  0
   -1.6169   -2.7392   -4.5807 H   0  0  0  0  0  0  0  0  0  0  0  0
   -1.2557   -2.7133   -2.1481 H   0  0  0  0  0  0  0  0  0  0  0  0
  1  2  2  0
  2  3  1  0
  2  4  1  0
  4  5  2  0
  5  6  1  0
  5  7  1  0
  7  8  1  0
  8  9  2  0
  8 10  1  0
 10 11  2  0
 11 12  1  0
  1 13  1  0
  7 13  2  0
 12 13  1  0
 10 14  1  0
 14 15  2  0
 15 16  1  0
 16 17  2  0
 17 18  1  0
 17 19  1  0
 14 20  1  0
 19 20  2  0
  1 21  1  0
  3 22  1  0
  4 23  1  0
  6 24  1  0
 11 25  1  0
 15 26  1  0
 16 27  1  0
 18 28  1  0
 19 29  1  0
 20 30  1  0
M  END
