
     RDKit          3D

 14 13  0  0  0  0  0  0  0  0999 V2000
   -2.8760   -5.8636   16.4099 O   0  0  0  0  0  0  0  0  0  0  0  0
   -3.6372   -5.0042   15.5819 C   0  0  0  0  0  0  0  0  0  0  0  0
   -3.1564   -5.0597   14.1419 C   0  0  0  0  0  0  0  0  0  0  0  0
   -2.2852   -4.2877   13.7365 O   0  0  0  0  0  0  0  0  0  0  0  0
   -3.8142   -6.1162   13.2503 C   0  0  1  0  0  0  0  0  0  0  0  0
   -5.2626   -6.4350   13.6472 C   0  0  1  0  0  0  0  0  0  0  0  0
   -6.3155   -5.6472   12.8711 C   0  0  0  0  0  0  0  0  0  0  0  0
   -5.7030   -4.4580   12.3800 O   0  0  0  0  0  0  0  0  0  0  0  0
   -6.3381   -3.7690   11.0842 P   0  0  0  0  0  5  0  0  0  0  0  0
   -6.8620   -2.3880   11.2647 O   0  0  0  0  0  0  0  0  0  0  0  0
   -7.4586   -4.7844   10.5762 O   0  0  0  0  0  0  0  0  0  0  0  0
   -5.2271   -3.8709    9.9459 O   0  0  0  0  0  0  0  0  0  0  0  0
   -3.7997   -5.6426   11.8997 O   0  0  0  0  0  0  0  0  0  0  0  0
   -5.5057   -7.8463   13.4999 O   0  0  0  0  0  0  0  0  0  0  0  0
  1  2  1  0
  2  3  1  0
  3  4  2  0
  3  5  1  0
  5  6  1  0
  6  7  1  0
  7  8  1  0
  8  9  1  0
  9 10  2  0
  9 11  1  0
  9 12  1  0
  5 13  1  6
  6 14  1  6
M  END
