7NFB_GEN_A_601
     RDKit          3D

 30 32  0  0  0  0  0  0  0  0999 V2000
   -0.1111    0.5350   -8.8268 C   0  0  0  0  0  0  0  0  0  0  0  0
    0.0693   -0.3867   -7.7984 C   0  0  0  0  0  0  0  0  0  0  0  0
    1.3601   -0.7312   -7.4030 O   0  0  0  0  0  0  0  0  0  0  0  0
   -1.0430   -0.9494   -7.1674 C   0  0  0  0  0  0  0  0  0  0  0  0
   -2.3437   -0.5956   -7.5468 C   0  0  0  0  0  0  0  0  0  0  0  0
   -3.3850   -1.1356   -6.7863 O   0  0  0  0  0  0  0  0  0  0  0  0
   -2.5394    0.2996   -8.6408 C   0  0  0  0  0  0  0  0  0  0  0  0
   -3.8028    0.6288   -9.1920 C   0  0  0  0  0  0  0  0  0  0  0  0
   -4.8533    0.0524   -8.8038 O   0  0  0  0  0  0  0  0  0  0  0  0
   -3.8869    1.5725  -10.2344 C   0  0  0  0  0  0  0  0  0  0  0  0
   -2.6991    2.1141  -10.7387 C   0  0  0  0  0  0  0  0  0  0  0  0
   -1.5241    1.7472  -10.2493 O   0  0  0  0  0  3  0  0  0  0  0  0
   -1.3961    0.8780   -9.2539 C   0  0  0  0  0  0  0  0  0  0  0  0
   -5.1903    1.9845  -10.8161 C   0  0  0  0  0  0  0  0  0  0  0  0
   -5.2449    2.9500  -11.8371 C   0  0  0  0  0  0  0  0  0  0  0  0
   -6.4729    3.3285  -12.3879 C   0  0  0  0  0  0  0  0  0  0  0  0
   -7.6591    2.7467  -11.9308 C   0  0  0  0  0  0  0  0  0  0  0  0
   -8.8753    3.1341  -12.4886 O   0  0  0  0  0  0  0  0  0  0  0  0
   -7.6131    1.7796  -10.9181 C   0  0  0  0  0  0  0  0  0  0  0  0
   -6.3867    1.3985  -10.3655 C   0  0  0  0  0  0  0  0  0  0  0  0
    0.7531    0.9776   -9.3072 H   0  0  0  0  0  0  0  0  0  0  0  0
    1.5262   -1.3962   -6.6566 H   0  0  0  0  0  0  0  0  0  0  0  0
   -0.8979   -1.6453   -6.3503 H   0  0  0  0  0  0  0  0  0  0  0  0
   -4.3189   -0.7562   -6.7425 H   0  0  0  0  0  0  0  0  0  0  0  0
   -2.7255    2.8421  -11.5396 H   0  0  0  0  0  0  0  0  0  0  0  0
   -4.3366    3.3996  -12.2184 H   0  0  0  0  0  0  0  0  0  0  0  0
   -6.5024    4.0719  -13.1744 H   0  0  0  0  0  0  0  0  0  0  0  0
   -9.7520    2.7309  -12.1793 H   0  0  0  0  0  0  0  0  0  0  0  0
   -8.5266    1.3240  -10.5577 H   0  0  0  0  0  0  0  0  0  0  0  0
   -6.3723    0.6559   -9.5773 H   0  0  0  0  0  0  0  0  0  0  0  0
  1  2  4  0
  2  3  1  0
  2  4  4  0
  4  5  4  0
  5  6  1  0
  5  7  4  0
  7  8  4  0
  8  9  2  0
  8 10  4  0
 10 11  4  0
 11 12  4  0
  1 13  4  0
  7 13  4  0
 12 13  4  0
 10 14  1  0
 14 15  4  0
 15 16  4  0
 16 17  4  0
 17 18  1  0
 17 19  4  0
 14 20  4  0
 19 20  4  0
  1 21  1  0
  3 22  1  0
  4 23  1  0
  6 24  1  0
 11 25  1  0
 15 26  1  0
 16 27  1  0
 18 28  1  0
 19 29  1  0
 20 30  1  0
M  CHG  1  12   1
M  END
