1UOU_CMU_A_1481
     RDKit          3D

 27 28  0  0  0  0  0  0  0  0999 V2000
   -1.9254    2.3677   32.1240 Cl  0  0  0  0  0  0  0  0  0  0  0  0
   -1.2309    1.4011   30.8198 C   0  0  0  0  0  0  0  0  0  0  0  0
   -1.4367    1.7154   29.4613 C   0  0  0  0  0  0  0  0  0  0  0  0
   -2.3021    2.8767   29.0366 C   0  0  1  0  0  0  0  0  0  0  0  0
   -3.6442    2.4094   28.6877 N   0  0  0  0  0  0  0  0  0  0  0  0
   -4.7153    2.2148   29.6495 C   0  0  1  0  0  0  0  0  0  0  0  0
   -5.9153    1.6787   28.8464 C   0  0  2  0  0  0  0  0  0  0  0  0
   -5.3911    1.2893   27.4565 C   0  0  2  0  0  0  0  0  0  0  0  0
   -4.0208    1.8457   27.4443 C   0  0  0  0  0  0  0  0  0  0  0  0
   -3.2359    1.8136   26.4151 N   0  0  0  0  0  0  0  0  0  0  0  0
   -0.8800    0.9210   28.5023 N   0  0  0  0  0  0  0  0  0  0  0  0
   -0.1208   -0.1582   28.8319 C   0  0  0  0  0  0  0  0  0  0  0  0
    0.3846   -0.8723   27.9245 O   0  0  0  0  0  0  0  0  0  0  0  0
    0.0930   -0.4693   30.1375 N   0  0  0  0  0  0  0  0  0  0  0  0
   -0.4454    0.2849   31.1320 C   0  0  0  0  0  0  0  0  0  0  0  0
   -0.2347   -0.0265   32.3353 O   0  0  0  0  0  0  0  0  0  0  0  0
   -2.3702    3.6471   29.8321 H   0  0  0  0  0  0  0  0  0  0  0  0
   -1.8406    3.3850   28.1628 H   0  0  0  0  0  0  0  0  0  0  0  0
   -4.4046    1.4647   30.4082 H   0  0  0  0  0  0  0  0  0  0  0  0
   -4.9648    3.1758   30.1488 H   0  0  0  0  0  0  0  0  0  0  0  0
   -6.6826    2.4774   28.7456 H   0  0  0  0  0  0  0  0  0  0  0  0
   -6.3741    0.8037   29.3561 H   0  0  0  0  0  0  0  0  0  0  0  0
   -6.0091    1.7414   26.6511 H   0  0  0  0  0  0  0  0  0  0  0  0
   -5.3509    0.1844   27.3449 H   0  0  0  0  0  0  0  0  0  0  0  0
   -3.5421    1.3845   25.5136 H   0  0  0  0  0  0  0  0  0  0  0  0
   -1.0338    1.1405   27.4919 H   0  0  0  0  0  0  0  0  0  0  0  0
    0.6783   -1.3015   30.3800 H   0  0  0  0  0  0  0  0  0  0  0  0
  1  2  1  0
  2  3  2  0
  3  4  1  0
  4  5  1  0
  5  6  1  0
  6  7  1  0
  7  8  1  0
  5  9  1  0
  8  9  1  0
  9 10  2  3
  3 11  1  0
 11 12  1  0
 12 13  2  0
 12 14  1  0
  2 15  1  0
 14 15  1  0
 15 16  2  0
  4 17  1  1
  4 18  1  0
  6 19  1  1
  6 20  1  0
  7 21  1  6
  7 22  1  0
  8 23  1  6
  8 24  1  0
 10 25  1  0
 11 26  1  0
 14 27  1  0
M  END
