1MEH_MOA_A_600
     RDKit          3D

 23 24  0  0  0  0  0  0  0  0999 V2000
   61.0750   52.7088   17.6731 C   0  0  0  0  0  0  0  0  0  0  0  0
   58.6236   57.5112   15.7527 C   0  0  0  0  0  0  0  0  0  0  0  0
   58.4485   58.7576   15.2847 C   0  0  0  0  0  0  0  0  0  0  0  0
   58.5630   59.8378   16.2906 C   0  0  0  0  0  0  0  0  0  0  0  0
   57.3005   60.2581   16.9039 C   0  0  0  0  0  0  0  0  0  0  0  0
   57.2596   61.3181   17.9028 C   0  0  0  0  0  0  0  0  0  0  0  0
   56.3418   52.7591   17.7769 C   0  0  0  0  0  0  0  0  0  0  0  0
   55.7945   55.9969   16.9630 C   0  0  0  0  0  0  0  0  0  0  0  0
   58.1303   58.9199   13.8663 C   0  0  0  0  0  0  0  0  0  0  0  0
   59.2219   51.7064   18.4933 C   0  0  0  0  0  0  0  0  0  0  0  0
   58.8266   52.8509   17.6357 C   0  0  0  0  0  0  0  0  0  0  0  0
   57.6060   53.3612   17.2778 C   0  0  0  0  0  0  0  0  0  0  0  0
   57.5436   54.4553   16.4431 C   0  0  0  0  0  0  0  0  0  0  0  0
   58.6708   55.0823   15.9338 C   0  0  0  0  0  0  0  0  0  0  0  0
   59.9066   54.5663   16.2968 C   0  0  0  0  0  0  0  0  0  0  0  0
   59.9501   53.4689   17.1339 C   0  0  0  0  0  0  0  0  0  0  0  0
   58.5598   56.2573   15.0068 C   0  0  0  0  0  0  0  0  0  0  0  0
   62.2936   52.9347   17.4640 O   0  0  0  0  0  0  0  0  0  0  0  0
   60.6276   51.6740   18.4674 O   0  0  0  0  0  0  0  0  0  0  0  0
   56.2665   54.9459   16.1043 O   0  0  0  0  0  0  0  0  0  0  0  0
   61.0378   55.1881   15.7937 O   0  0  0  0  0  0  0  0  0  0  0  0
   55.9784   61.5106   18.5122 O   0  0  0  0  0  0  0  0  0  0  0  0
   58.1380   62.0740   18.3070 O   0  0  0  0  0  0  0  0  0  0  0  0
  2  3  2  0
  4  3  1  1
  4  5  1  0
  5  6  1  6
  9  3  1  6
 10 11  1  0
  7 12  1  1
 11 12  1  0
 12 13  2  0
 13 14  1  0
 14 15  2  0
  1 16  1  0
 11 16  2  0
 15 16  1  0
 17  2  1  1
 14 17  1  0
  1 18  2  0
  1 19  1  0
 10 19  1  6
  8 20  1  1
 13 20  1  0
 15 21  1  0
  6 22  1  0
  6 23  2  0
M  END
$$$$
