
     RDKit          3D

 30 30  0  0  0  0  0  0  0  0999 V2000
  -32.3888   -7.8758   17.6295 N   0  0  0  0  0  0  0  0  0  0  0  0
  -32.3966   -9.3482   17.4745 C   0  0  2  0  0  0  0  0  0  0  0  0
  -33.7606   -9.8095   16.9465 C   0  0  0  0  0  0  0  0  0  0  0  0
  -34.0201  -10.8991   16.4562 O   0  0  0  0  0  0  0  0  0  0  0  0
  -34.7285   -8.8886   17.1029 O   0  0  0  0  0  0  0  0  0  0  0  0
  -32.0718  -10.0310   18.8070 C   0  0  0  0  0  0  0  0  0  0  0  0
  -32.0626  -11.5577   18.7091 C   0  0  0  0  0  0  0  0  0  0  0  0
  -31.8415  -12.2071   20.0603 C   0  0  0  0  0  0  0  0  0  0  0  0
  -32.3962  -11.8463   21.0943 O   0  0  0  0  0  0  0  0  0  0  0  0
  -30.9276  -13.2351   20.0282 N   0  0  0  0  0  0  0  0  0  0  0  0
  -30.5290  -13.9613   21.2437 C   0  0  2  0  0  0  0  0  0  0  0  0
  -29.2075  -14.7356   21.0181 C   0  0  0  0  0  0  0  0  0  0  0  0
  -29.0048  -15.4436   20.0338 O   0  0  0  0  0  0  0  0  0  0  0  0
  -31.6087  -14.9687   21.6799 C   0  0  0  0  0  0  0  0  0  0  0  0
  -32.8369  -14.2116   22.8133 S   0  0  0  0  0  0  0  0  0  0  0  0
  -28.2838  -14.6007   22.0300 N   0  0  0  0  0  0  0  0  0  0  0  0
  -27.3446  -15.6675   22.3251 C   0  0  0  0  0  0  0  0  0  0  0  0
  -25.9043  -15.3402   21.9453 C   0  0  0  0  0  0  0  0  0  0  0  0
  -24.9081  -15.7785   22.5011 O   0  0  0  0  0  0  0  0  0  0  0  0
  -25.7707  -14.4566   20.9318 O   0  0  0  0  0  0  0  0  0  0  0  0
  -31.7994  -14.0256   24.2974 C   0  0  0  0  0  0  0  0  0  0  0  0
  -31.6915  -15.2865   25.1185 C   0  0  0  0  0  0  0  0  0  0  0  0
  -30.4705  -15.6501   25.7085 C   0  0  0  0  0  0  0  0  0  0  0  0
  -30.3657  -16.8203   26.4640 C   0  0  0  0  0  0  0  0  0  0  0  0
  -31.4908  -17.6356   26.6311 C   0  0  0  0  0  0  0  0  0  0  0  0
  -31.3852  -18.8701   27.4155 N   0  0  0  0  0  4  0  0  0  0  0  0
  -30.3624  -19.0347   28.0946 O   0  0  0  0  0  1  0  0  0  0  0  0
  -32.3266  -19.6740   27.3550 O   0  0  0  0  0  0  0  0  0  0  0  0
  -32.7160  -17.2867   26.0525 C   0  0  0  0  0  0  0  0  0  0  0  0
  -32.8111  -16.1149   25.2992 C   0  0  0  0  0  0  0  0  0  0  0  0
  2  1  1  1
  2  3  1  0
  3  4  2  0
  3  5  1  0
  2  6  1  0
  6  7  1  0
  7  8  1  0
  8  9  2  0
  8 10  1  0
 10 11  1  0
 11 12  1  0
 12 13  2  0
 11 14  1  6
 14 15  1  0
 12 16  1  0
 16 17  1  0
 17 18  1  0
 18 19  2  0
 18 20  1  0
 15 21  1  0
 21 22  1  0
 22 23  4  0
 23 24  4  0
 24 25  4  0
 25 26  1  0
 26 27  1  0
 26 28  2  0
 25 29  4  0
 22 30  4  0
 29 30  4  0
M  CHG  2  26   1  27  -1
M  END
