6XG5_TOP_A_303
     RDKit          3D

 21 22  0  0  0  0  0  0  0  0999 V2000
  -22.8287   18.8504    2.4234 C   0  0  0  0  0  0  0  0  0  0  0  0
  -22.6969   17.5100    2.2226 N   0  0  0  0  0  0  0  0  0  0  0  0
  -22.0965   17.0201    1.1244 C   0  0  0  0  0  0  0  0  0  0  0  0
  -21.9488   15.6160    0.8923 N   0  0  0  0  0  0  0  0  0  0  0  0
  -21.6220   17.8672    0.2161 N   0  0  0  0  0  0  0  0  0  0  0  0
  -21.7252   19.2009    0.3638 C   0  0  0  0  0  0  0  0  0  0  0  0
  -21.1791   20.0100   -0.6562 N   0  0  0  0  0  0  0  0  0  0  0  0
  -22.3374   19.7634    1.4809 C   0  0  0  0  0  0  0  0  0  0  0  0
  -22.4817   21.2259    1.6643 C   0  0  0  0  0  0  0  0  0  0  0  0
  -22.2544   21.6771    3.0563 C   0  0  0  0  0  0  0  0  0  0  0  0
  -20.9618   21.5205    3.5489 C   0  0  0  0  0  0  0  0  0  0  0  0
  -20.6164   21.9028    4.8327 C   0  0  0  0  0  0  0  0  0  0  0  0
  -19.3416   21.7612    5.3521 O   0  0  0  0  0  0  0  0  0  0  0  0
  -18.2073   21.3741    4.6270 C   0  0  0  0  0  0  0  0  0  0  0  0
  -21.6040   22.4554    5.6319 C   0  0  0  0  0  0  0  0  0  0  0  0
  -21.2661   22.8491    6.9416 O   0  0  0  0  0  0  0  0  0  0  0  0
  -21.2231   21.8214    7.9115 C   0  0  0  0  0  0  0  0  0  0  0  0
  -22.9031   22.6263    5.1727 C   0  0  0  0  0  0  0  0  0  0  0  0
  -23.8522   23.1839    6.0151 O   0  0  0  0  0  0  0  0  0  0  0  0
  -25.1992   23.2130    5.5962 C   0  0  0  0  0  0  0  0  0  0  0  0
  -23.2041   22.2256    3.8696 C   0  0  0  0  0  0  0  0  0  0  0  0
  1  2  2  0
  2  3  1  0
  3  4  1  0
  3  5  2  0
  5  6  1  0
  6  7  1  0
  1  8  1  0
  6  8  2  0
  8  9  1  0
  9 10  1  0
 10 11  2  0
 11 12  1  0
 12 13  1  0
 13 14  1  0
 12 15  2  0
 15 16  1  0
 16 17  1  0
 15 18  1  0
 18 19  1  0
 19 20  1  0
 10 21  1  0
 18 21  2  0
M  END
$$$$
