1TZ8_DES_B_128
     RDKit          3D

 20 21  0  0  0  0  0  0  0  0999 V2000
   41.6668   71.5666   -3.8939 C   0  0  0  0  0  0  0  0  0  0  0  0
   41.4391   71.9973   -2.4777 C   0  0  0  0  0  0  0  0  0  0  0  0
   40.0144   72.0273   -2.0638 C   0  0  0  0  0  0  0  0  0  0  0  0
   39.0029   72.1887   -3.1079 C   0  0  0  0  0  0  0  0  0  0  0  0
   38.0831   71.1623   -3.3723 C   0  0  0  0  0  0  0  0  0  0  0  0
   37.1372   71.2924   -4.3671 C   0  0  0  0  0  0  0  0  0  0  0  0
   37.0421   72.4308   -5.1524 C   0  0  0  0  0  0  0  0  0  0  0  0
   36.0893   72.5531   -6.1487 O   0  0  0  0  0  0  0  0  0  0  0  0
   37.9424   73.4432   -4.8993 C   0  0  0  0  0  0  0  0  0  0  0  0
   38.8823   73.3016   -3.9036 C   0  0  0  0  0  0  0  0  0  0  0  0
   39.6816   71.9873   -0.7882 C   0  0  0  0  0  0  0  0  0  0  0  0
   38.4040   71.4513   -0.2901 C   0  0  0  0  0  0  0  0  0  0  0  0
   37.3463   72.3101    0.0313 C   0  0  0  0  0  0  0  0  0  0  0  0
   36.1248   71.8281    0.4504 C   0  0  0  0  0  0  0  0  0  0  0  0
   35.9164   70.4732    0.5624 C   0  0  0  0  0  0  0  0  0  0  0  0
   34.6625   70.0444    0.9891 O   0  0  0  0  0  0  0  0  0  0  0  0
   36.9407   69.5868    0.2533 C   0  0  0  0  0  0  0  0  0  0  0  0
   38.1819   70.0789   -0.1725 C   0  0  0  0  0  0  0  0  0  0  0  0
   40.5611   72.5444    0.3037 C   0  0  0  0  0  0  0  0  0  0  0  0
   40.4649   71.5037    1.4238 C   0  0  0  0  0  0  0  0  0  0  0  0
  1  2  1  1
  2  3  1  6
  3  4  1  0
  4  5  2  0
  5  6  1  0
  6  7  2  0
  7  8  1  0
  7  9  1  0
  4 10  1  0
  9 10  2  0
  3 11  2  0
 11 12  1  0
 12 13  2  0
 13 14  1  0
 14 15  2  0
 15 16  1  0
 15 17  1  0
 12 18  1  0
 17 18  2  0
 19 11  1  1
 20 19  1  1
M  END
$$$$
