
     RDKit          3D

 12 12  0  0  0  0  0  0  0  0999 V2000
   62.8623   42.0366   28.8150 C   0  0  0  0  0  0  0  0  0  0  0  0
   63.0122   41.7860   29.9974 O   0  0  0  0  0  0  0  0  0  0  0  0
   61.8728   41.4821   28.0987 O   0  0  0  0  0  0  0  0  0  0  0  0
   63.7196   42.9497   28.0476 C   0  0  0  0  0  0  0  0  0  0  0  0
   63.2462   43.9040   27.2314 C   0  0  0  0  0  0  0  0  0  0  0  0
   64.0997   44.8123   26.4532 C   0  0  0  0  0  0  0  0  0  0  0  0
   63.9033   44.9017   25.0674 C   0  0  0  0  0  0  0  0  0  0  0  0
   64.6746   45.7713   24.2902 C   0  0  0  0  0  0  0  0  0  0  0  0
   65.6381   46.5630   24.9041 C   0  0  0  0  0  0  0  0  0  0  0  0
   65.8374   46.5018   26.2772 C   0  0  0  0  0  0  0  0  0  0  0  0
   65.0662   45.6319   27.0524 C   0  0  0  0  0  0  0  0  0  0  0  0
   66.4126   47.4255   24.1873 O   0  0  0  0  0  0  0  0  0  0  0  0
  1  2  2  0
  1  3  1  0
  1  4  1  0
  4  5  2  0
  5  6  1  0
  6  7  4  0
  7  8  4  0
  8  9  4  0
  9 10  4  0
  6 11  4  0
 10 11  4  0
  9 12  1  0
M  END
