6X8D_ARA_A_207
     RDKit          3D

 10 10  0  0  0  0  0  0  0  0999 V2000
   23.0002    1.9425   71.4554 C   0  0  2  0  0  0  0  0  0  0  0  0
   22.6377    1.9084   70.0050 C   0  0  1  0  0  0  0  0  0  0  0  0
   21.2828    1.3477   69.7133 C   0  0  2  0  0  0  0  0  0  0  0  0
   20.7131    0.4814   70.7933 C   0  0  2  0  0  0  0  0  0  0  0  0
   21.2331    0.7889   72.1656 C   0  0  0  0  0  0  0  0  0  0  0  0
   23.7721    0.8702   71.8726 O   0  0  0  0  0  0  0  0  0  0  0  0
   22.6403    3.2398   69.5415 O   0  0  0  0  0  0  0  0  0  0  0  0
   21.2941    0.5782   68.5367 O   0  0  0  0  0  0  0  0  0  0  0  0
   20.9582   -0.8642   70.4873 O   0  0  0  0  0  0  0  0  0  0  0  0
   21.8230    2.0506   72.1992 O   0  0  0  0  0  0  0  0  0  0  0  0
  1  2  1  0
  2  3  1  0
  3  4  1  0
  4  5  1  0
  1  6  1  1
  2  7  1  1
  3  8  1  6
  4  9  1  6
  1 10  1  0
  5 10  1  1
M  END
$$$$
