7WL4_JFU_A_202
     RDKit          3D

 34 38  0  0  0  0  0  0  0  0999 V2000
    3.8174   12.7217   29.1676 F   0  0  0  0  0  0  0  0  0  0  0  0
    3.9309   13.6715   30.1201 C   0  0  0  0  0  0  0  0  0  0  0  0
    2.8464   14.5273   30.2689 C   0  0  0  0  0  0  0  0  0  0  0  0
    2.9009   15.5495   31.1993 C   0  0  0  0  0  0  0  0  0  0  0  0
    1.8612   16.3800   31.3509 F   0  0  0  0  0  0  0  0  0  0  0  0
    4.0610   15.6723   31.9540 C   0  0  0  0  0  0  0  0  0  0  0  0
    5.1271   14.8036   31.7843 C   0  0  0  0  0  0  0  0  0  0  0  0
    5.0795   13.7680   30.8470 C   0  0  0  0  0  0  0  0  0  0  0  0
    6.4433   12.7153   30.7460 S   0  0  1  0  0  0  0  0  0  0  0  0
    6.9487   12.7843   29.3037 O   0  0  0  0  0  0  0  0  0  0  0  0
    7.5712   13.2732   31.6008 O   0  0  0  0  0  0  0  0  0  0  0  0
    6.1317   11.1062   31.1951 N   0  0  0  0  0  0  0  0  0  0  0  0
    6.1316   10.5164   32.4572 C   0  0  0  0  0  0  0  0  0  0  0  0
    7.1610    9.8996   33.0970 C   0  0  0  0  0  0  0  0  0  0  0  0
    7.0727    9.3018   34.3397 C   0  0  0  0  0  0  0  0  0  0  0  0
    5.8548    9.3129   35.0148 C   0  0  0  0  0  0  0  0  0  0  0  0
    5.3907    8.8199   36.2633 N   0  0  0  0  0  0  0  0  0  0  0  0
    6.1825    8.1028   37.2398 C   0  0  0  0  0  0  0  0  0  0  0  0
    5.9625    6.6135   37.1131 C   0  0  0  0  0  0  0  0  0  0  0  0
    3.9956    9.1765   36.3509 C   0  0  0  0  0  0  0  0  0  0  0  0
    3.2177    8.9321   37.2834 O   0  0  0  0  0  0  0  0  0  0  0  0
    3.6577    9.8835   35.1347 C   0  0  0  0  0  0  0  0  0  0  0  0
    2.5367   10.4792   34.5887 C   0  0  0  0  0  0  0  0  0  0  0  0
    4.8104    9.9279   34.3865 C   0  0  0  0  0  0  0  0  0  0  0  0
    4.9029   10.5226   33.1478 C   0  0  0  0  0  0  0  0  0  0  0  0
    3.8079   11.0886   32.6463 N   0  0  0  0  0  0  0  0  0  0  0  0
    2.6403   11.0727   33.3463 C   0  0  0  0  0  0  0  0  0  0  0  0
    1.5105   11.6816   32.7790 N   0  0  0  0  0  0  0  0  0  0  0  0
    0.1645   11.1868   33.0286 C   0  0  0  0  0  0  0  0  0  0  0  0
   -0.7062   12.4440   33.1227 C   0  0  0  0  0  0  0  0  0  0  0  0
   -0.8182   13.0108   31.8143 N   0  0  0  0  0  0  0  0  0  0  0  0
   -1.9114   12.3161   31.1212 C   0  0  0  0  0  0  0  0  0  0  0  0
    0.3916   12.9761   31.0541 C   0  0  0  0  0  0  0  0  0  0  0  0
    1.6272   12.8376   31.9132 C   0  0  0  0  0  0  0  0  0  0  0  0
  1  2  1  0
  2  3  2  0
  3  4  1  0
  4  5  1  0
  4  6  2  0
  6  7  1  0
  2  8  1  0
  7  8  2  0
  8  9  1  0
  9 10  2  0
  9 11  2  0
  9 12  1  1
 12 13  1  0
 13 14  2  0
 14 15  1  0
 15 16  2  0
 16 17  1  0
 17 18  1  0
 18 19  1  0
 17 20  1  0
 20 21  2  0
 20 22  1  0
 22 23  2  0
 16 24  1  0
 22 24  1  0
 13 25  1  0
 24 25  2  0
 25 26  1  0
 26 27  2  0
 23 27  1  0
 27 28  1  0
 28 29  1  0
 29 30  1  0
 30 31  1  0
 31 32  1  0
 31 33  1  0
 33 34  1  0
 28 34  1  0
M  END
$$$$
