7TWC_CXS_A_501
     RDKit          3D

 33 33  0  0  0  0  0  0  0  0999 V2000
   10.1457   11.4331   18.6999 S   0  0  1  0  0  6  0  0  0  0  0  0
    8.8757   12.2124   18.8950 O   0  0  0  0  0  0  0  0  0  0  0  0
   10.6927   11.7078   17.3269 O   0  0  0  0  0  0  0  0  0  0  0  0
   11.2666   11.9036   19.8616 O   0  0  0  0  0  0  0  0  0  0  0  0
    9.7892    9.6887   18.8799 C   0  0  2  0  0  0  0  0  0  0  0  0
    9.0947    9.3545   20.2098 C   0  0  1  0  0  0  0  0  0  0  0  0
    7.8103    8.5249   20.0529 C   0  0  1  0  0  0  0  0  0  0  0  0
    8.0610    7.2900   19.2927 N   0  0  0  0  0  0  0  0  0  0  0  0
    6.8339    6.7139   18.7096 C   0  0  1  0  0  0  0  0  0  0  0  0
    7.0841    5.2979   18.1390 C   0  0  1  0  0  0  0  0  0  0  0  0
    5.7859    4.6883   17.5950 C   0  0  2  0  0  0  0  0  0  0  0  0
    4.7006    4.6501   18.6775 C   0  0  1  0  0  0  0  0  0  0  0  0
    4.4492    6.0486   19.2538 C   0  0  1  0  0  0  0  0  0  0  0  0
    5.7464    6.6627   19.7957 C   0  0  2  0  0  0  0  0  0  0  0  0
   11.5573   12.8090   19.5846 H   0  0  0  0  0  0  0  0  0  0  0  0
   10.7511    9.1349   18.8381 H   0  0  0  0  0  0  0  0  0  0  0  0
    9.1717    9.3500   18.0215 H   0  0  0  0  0  0  0  0  0  0  0  0
    9.8125    8.7964   20.8476 H   0  0  0  0  0  0  0  0  0  0  0  0
    8.8536   10.2963   20.7479 H   0  0  0  0  0  0  0  0  0  0  0  0
    7.3896    8.3058   21.0585 H   0  0  0  0  0  0  0  0  0  0  0  0
    7.0482    9.1383   19.5256 H   0  0  0  0  0  0  0  0  0  0  0  0
    8.7580    7.4894   18.5369 H   0  0  0  0  0  0  0  0  0  0  0  0
    6.4543    7.3653   17.8894 H   0  0  0  0  0  0  0  0  0  0  0  0
    7.8272    5.3445   17.3155 H   0  0  0  0  0  0  0  0  0  0  0  0
    7.4941    4.6326   18.9308 H   0  0  0  0  0  0  0  0  0  0  0  0
    5.9862    3.6542   17.2407 H   0  0  0  0  0  0  0  0  0  0  0  0
    5.4278    5.2844   16.7269 H   0  0  0  0  0  0  0  0  0  0  0  0
    3.7577    4.2595   18.2380 H   0  0  0  0  0  0  0  0  0  0  0  0
    5.0102    3.9602   19.4930 H   0  0  0  0  0  0  0  0  0  0  0  0
    4.0245    6.7075   18.4646 H   0  0  0  0  0  0  0  0  0  0  0  0
    3.7055    5.9777   20.0764 H   0  0  0  0  0  0  0  0  0  0  0  0
    5.5359    7.6935   20.1551 H   0  0  0  0  0  0  0  0  0  0  0  0
    6.1050    6.0647   20.6629 H   0  0  0  0  0  0  0  0  0  0  0  0
  1  2  2  0
  1  3  2  0
  1  4  1  1
  1  5  1  0
  5  6  1  0
  6  7  1  0
  7  8  1  0
  8  9  1  0
  9 10  1  0
 10 11  1  0
 11 12  1  0
 12 13  1  0
  9 14  1  0
 13 14  1  0
  4 15  1  0
  5 16  1  1
  5 17  1  0
  6 18  1  1
  6 19  1  0
  7 20  1  1
  7 21  1  0
  8 22  1  0
  9 23  1  6
 10 24  1  6
 10 25  1  0
 11 26  1  6
 11 27  1  0
 12 28  1  6
 12 29  1  0
 13 30  1  6
 13 31  1  0
 14 32  1  1
 14 33  1  0
M  END
