7MS7_ZQ1_A_302
     RDKit          3D

 49 51  0  0  0  0  0  0  0  0999 V2000
   -0.0546   -0.5611    1.5805 C   0  0  0  0  0  0  0  0  0  0  0  0
   -0.4317   -1.4928    2.7467 C   0  0  0  0  0  0  0  0  0  0  0  0
    0.1339   -2.9300    2.5829 C   0  0  0  0  0  0  0  0  0  0  0  0
    1.3642   -3.2297    3.4337 C   0  0  0  0  0  0  0  0  0  0  0  0
    2.3454   -2.2581    3.7249 C   0  0  0  0  0  0  0  0  0  0  0  0
    1.5674   -4.5466    3.8886 C   0  0  0  0  0  0  0  0  0  0  0  0
    0.7192    0.6402   -1.3231 C   0  0  0  0  0  0  0  0  0  0  0  0
    2.0754    1.6076    0.7597 O   0  0  0  0  0  0  0  0  0  0  0  0
    1.8618    0.3357   -0.0129 S   0  0  0  0  0  6  0  0  0  0  0  0
    3.1841   -0.0854   -0.5920 O   0  0  0  0  0  0  0  0  0  0  0  0
   -0.3385    1.5393   -1.1473 C   0  0  0  0  0  0  0  0  0  0  0  0
   -1.2201    1.7625   -2.1576 N   0  0  0  0  0  0  0  0  0  0  0  0
   -1.1166    1.1373   -3.3632 C   0  0  0  0  0  0  0  0  0  0  0  0
   -2.1085    1.4187   -4.4241 C   0  0  0  0  0  0  0  0  0  0  0  0
   -2.0136    0.8380   -5.5403 O   0  0  0  0  0  0  0  0  0  0  0  0
   -3.1797    2.3488   -4.1944 N   0  0  0  0  0  0  0  0  0  0  0  0
   -4.1971    2.6322   -5.2035 C   0  0  0  0  0  0  0  0  0  0  0  0
   -5.1338    1.4739   -5.3304 C   0  0  0  0  0  0  0  0  0  0  0  0
   -6.0350    1.1984   -4.3069 O   0  0  0  0  0  0  0  0  0  0  0  0
   -5.0922    0.7346   -6.3499 O   0  0  0  0  0  0  0  0  0  0  0  0
   -0.0656    0.2302   -3.5763 C   0  0  0  0  0  0  0  0  0  0  0  0
    0.8509   -0.0144   -2.5523 C   0  0  0  0  0  0  0  0  0  0  0  0
    1.2793   -0.9054    1.0685 N   0  0  0  0  0  0  0  0  0  0  0  0
    1.2919   -2.2225    0.3988 C   0  0  0  0  0  0  0  0  0  0  0  0
    0.3937   -3.2636    1.1016 C   0  0  0  0  0  0  0  0  0  0  0  0
    2.7033   -4.8784    4.6323 C   0  0  0  0  0  0  0  0  0  0  0  0
    3.6594   -3.9031    4.9244 C   0  0  0  0  0  0  0  0  0  0  0  0
    5.0856   -4.3216    5.8559 Cl  0  0  0  0  0  0  0  0  0  0  0  0
    3.4799   -2.5947    4.4693 C   0  0  0  0  0  0  0  0  0  0  0  0
   -0.8138   -0.6499    0.7704 H   0  0  0  0  0  0  0  0  0  0  0  0
   -0.0703    0.4869    1.9517 H   0  0  0  0  0  0  0  0  0  0  0  0
   -0.1058   -1.0481    3.7118 H   0  0  0  0  0  0  0  0  0  0  0  0
   -1.5420   -1.5415    2.7949 H   0  0  0  0  0  0  0  0  0  0  0  0
   -0.6716   -3.6177    2.9282 H   0  0  0  0  0  0  0  0  0  0  0  0
    2.2423   -1.2363    3.3919 H   0  0  0  0  0  0  0  0  0  0  0  0
    0.8454   -5.3216    3.6623 H   0  0  0  0  0  0  0  0  0  0  0  0
   -0.4667    2.0592   -0.2072 H   0  0  0  0  0  0  0  0  0  0  0  0
   -3.2369    2.8605   -3.2854 H   0  0  0  0  0  0  0  0  0  0  0  0
   -3.7132    2.8590   -6.1785 H   0  0  0  0  0  0  0  0  0  0  0  0
   -4.7806    3.5271   -4.8985 H   0  0  0  0  0  0  0  0  0  0  0  0
   -6.6699    0.4118   -4.3719 H   0  0  0  0  0  0  0  0  0  0  0  0
    0.0465   -0.2852   -4.5220 H   0  0  0  0  0  0  0  0  0  0  0  0
    1.6583   -0.7162   -2.7179 H   0  0  0  0  0  0  0  0  0  0  0  0
    2.3367   -2.6012    0.3968 H   0  0  0  0  0  0  0  0  0  0  0  0
    0.9625   -2.1397   -0.6597 H   0  0  0  0  0  0  0  0  0  0  0  0
   -0.5876   -3.2943    0.5774 H   0  0  0  0  0  0  0  0  0  0  0  0
    0.8400   -4.2776    1.0025 H   0  0  0  0  0  0  0  0  0  0  0  0
    2.8409   -5.8955    4.9765 H   0  0  0  0  0  0  0  0  0  0  0  0
    4.2204   -1.8364    4.6900 H   0  0  0  0  0  0  0  0  0  0  0  0
  1  2  1  0
  2  3  1  0
  3  4  1  0
  4  5  2  0
  4  6  1  0
  8  9  2  0
  7  9  1  0
  9 10  2  0
  7 11  2  0
 11 12  1  0
 12 13  2  0
 13 14  1  0
 14 15  2  0
 14 16  1  0
 16 17  1  0
 17 18  1  0
 18 19  1  0
 18 20  2  0
 13 21  1  0
  7 22  1  0
 21 22  2  0
  1 23  1  0
  9 23  1  0
 23 24  1  0
  3 25  1  0
 24 25  1  0
  6 26  2  0
 26 27  1  0
 27 28  1  0
 27 29  2  0
  5 29  1  0
  1 30  1  0
  1 31  1  0
  2 32  1  0
  2 33  1  0
  3 34  1  0
  5 35  1  0
  6 36  1  0
 11 37  1  0
 16 38  1  0
 17 39  1  0
 17 40  1  0
 19 41  1  0
 21 42  1  0
 22 43  1  0
 24 44  1  0
 24 45  1  0
 25 46  1  0
 25 47  1  0
 26 48  1  0
 29 49  1  0
M  END
