1OF1_SCT_B_500
     RDKit          3D

 18 20  0  0  0  0  0  0  0  0999 V2000
   20.1145   17.7673    9.7950 O   0  0  0  0  0  0  0  0  0  0  0  0
   16.7626   19.9831    8.3257 O   0  0  0  0  0  0  0  0  0  0  0  0
   22.0808   20.6177    9.3120 O   0  0  0  0  0  0  0  0  0  0  0  0
   23.8356   24.6704   10.0451 O   0  0  0  0  0  0  0  0  0  0  0  0
   20.6084   22.2603    9.8166 N   0  0  0  0  0  0  0  0  0  0  0  0
   22.9433   22.6398    9.6790 N   0  0  0  0  0  0  0  0  0  0  0  0
   18.2982   19.3257   10.0701 C   0  0  2  0  0  0  0  0  0  0  0  0
   18.1171   19.7383    8.6453 C   0  0  2  0  0  0  0  0  0  0  0  0
   18.9693   20.9410    8.4029 C   0  0  0  0  0  0  0  0  0  0  0  0
   19.4621   21.3950    9.7334 C   0  0  1  0  0  0  0  0  0  0  0  0
   19.1219   20.3771   10.7382 C   0  0  1  0  0  0  0  0  0  0  0  0
   18.8177   17.9244   10.2240 C   0  0  0  0  0  0  0  0  0  0  0  0
   21.8762   21.8314    9.6009 C   0  0  0  0  0  0  0  0  0  0  0  0
   18.4111   21.7250   10.8009 C   0  0  0  0  0  0  0  0  0  0  0  0
   22.8146   23.9450    9.9810 C   0  0  0  0  0  0  0  0  0  0  0  0
   21.5430   24.4348   10.2105 C   0  0  0  0  0  0  0  0  0  0  0  0
   20.4609   23.5730   10.1220 C   0  0  0  0  0  0  0  0  0  0  0  0
   21.3880   25.8752   10.5450 C   0  0  0  0  0  0  0  0  0  0  0  0
  8  2  1  1
  7  8  1  0
  8  9  1  0
 10  5  1  6
  9 10  1  0
  7 11  1  0
 10 11  1  0
  1 12  1  0
  7 12  1  6
  3 13  2  0
  5 13  1  0
  6 13  1  0
 10 14  1  0
 11 14  1  1
  4 15  2  0
  6 15  1  0
 15 16  1  0
  5 17  1  0
 16 17  2  0
 16 18  1  0
M  END
$$$$
