1OF1_SCT_B_500
     RDKit          3D

 18 20  0  0  0  0  0  0  0  0999 V2000
   17.9934   24.5549    9.3647 O   0  0  0  0  0  0  0  0  0  0  0  0
   16.8257   20.6464   10.5016 O   0  0  0  0  0  0  0  0  0  0  0  0
   21.3565   23.7661    9.4842 O   0  0  0  0  0  0  0  0  0  0  0  0
   25.3751   21.8167    9.7883 O   0  0  0  0  0  0  0  0  0  0  0  0
   21.3598   21.5041    9.5508 N   0  0  0  0  0  0  0  0  0  0  0  0
   23.3518   22.7846    9.6356 N   0  0  0  0  0  0  0  0  0  0  0  0
   17.7408   22.2049    8.8994 C   0  0  2  0  0  0  0  0  0  0  0  0
   17.7127   21.7306   10.3162 C   0  0  2  0  0  0  0  0  0  0  0  0
   19.1094   21.3771   10.7106 C   0  0  0  0  0  0  0  0  0  0  0  0
   19.9275   21.4003    9.4659 C   0  0  1  0  0  0  0  0  0  0  0  0
   19.1215   21.9748    8.3787 C   0  0  1  0  0  0  0  0  0  0  0  0
   17.2273   23.6065    8.7290 C   0  0  0  0  0  0  0  0  0  0  0  0
   22.0165   22.6902    9.5563 C   0  0  0  0  0  0  0  0  0  0  0  0
   19.4820   20.4944    8.3108 C   0  0  0  0  0  0  0  0  0  0  0  0
   24.1296   21.6892    9.7155 C   0  0  0  0  0  0  0  0  0  0  0  0
   23.5109   20.4536    9.7138 C   0  0  0  0  0  0  0  0  0  0  0  0
   22.1287   20.3903    9.6307 C   0  0  0  0  0  0  0  0  0  0  0  0
   24.3596   19.2359    9.8017 C   0  0  0  0  0  0  0  0  0  0  0  0
  8  2  1  6
  7  8  1  0
  8  9  1  0
 10  5  1  1
  9 10  1  0
  7 11  1  0
 10 11  1  0
  1 12  1  0
  7 12  1  1
  3 13  2  0
  5 13  1  0
  6 13  1  0
 10 14  1  0
 11 14  1  6
  4 15  2  0
  6 15  1  0
 15 16  1  0
  5 17  1  0
 16 17  2  0
 16 18  1  0
M  END
$$$$
