1OF1_SCT_B_500
     RDKit          3D

 18 20  0  0  0  0  0  0  0  0999 V2000
   48.0963   35.2964   -4.2583 O   0  0  0  0  0  0  0  0  0  0  0  0
   49.7264   31.8081   -2.8462 O   0  0  0  0  0  0  0  0  0  0  0  0
   45.1689   32.1435   -1.3321 O   0  0  0  0  0  0  0  0  0  0  0  0
   42.9017   34.3921    1.8057 O   0  0  0  0  0  0  0  0  0  0  0  0
   46.3181   33.7622   -0.2457 N   0  0  0  0  0  0  0  0  0  0  0  0
   44.0501   33.2697    0.2324 N   0  0  0  0  0  0  0  0  0  0  0  0
   49.2818   34.1564   -2.4982 C   0  0  2  0  0  0  0  0  0  0  0  0
   48.7487   32.8257   -2.9202 C   0  0  2  0  0  0  0  0  0  0  0  0
   47.5609   32.5152   -2.0695 C   0  0  0  0  0  0  0  0  0  0  0  0
   47.5328   33.5320   -0.9812 C   0  0  1  0  0  0  0  0  0  0  0  0
   48.5271   34.5734   -1.2788 C   0  0  1  0  0  0  0  0  0  0  0  0
   49.3003   35.1705   -3.6066 C   0  0  0  0  0  0  0  0  0  0  0  0
   45.1814   33.0534   -0.4544 C   0  0  0  0  0  0  0  0  0  0  0  0
   48.7771   33.6491   -0.0916 C   0  0  0  0  0  0  0  0  0  0  0  0
   43.9770   34.2186    1.1840 C   0  0  0  0  0  0  0  0  0  0  0  0
   45.1081   34.9709    1.4372 C   0  0  0  0  0  0  0  0  0  0  0  0
   46.2616   34.7224    0.7098 C   0  0  0  0  0  0  0  0  0  0  0  0
   45.0398   36.0223    2.4864 C   0  0  0  0  0  0  0  0  0  0  0  0
  8  2  1  1
  7  8  1  0
  8  9  1  0
 10  5  1  1
  9 10  1  0
  7 11  1  0
 10 11  1  0
  1 12  1  0
  7 12  1  6
  3 13  2  0
  5 13  1  0
  6 13  1  0
 10 14  1  0
 11 14  1  1
  4 15  2  0
  6 15  1  0
 15 16  1  0
  5 17  1  0
 16 17  2  0
 16 18  1  0
M  END
$$$$
