7BLG_GAL_A_201
     RDKit          3D

 24 24  0  0  0  0  0  0  0  0999 V2000
  -30.4265    2.9953   -8.6330 C   0  0  2  0  0  0  0  0  0  0  0  0
  -29.3627    2.7182   -9.6881 C   0  0  1  0  0  0  0  0  0  0  0  0
  -28.8960    1.2771   -9.6514 C   0  0  2  0  0  0  0  0  0  0  0  0
  -28.5434    0.8674   -8.1956 C   0  0  2  0  0  0  0  0  0  0  0  0
  -29.6865    1.2222   -7.2664 C   0  0  1  0  0  0  0  0  0  0  0  0
  -29.4015    0.9447   -5.8064 C   0  0  0  0  0  0  0  0  0  0  0  0
  -30.7078    4.3523   -8.5904 O   0  0  0  0  0  0  0  0  0  0  0  0
  -29.9010    2.9539  -10.9866 O   0  0  0  0  0  0  0  0  0  0  0  0
  -27.7341    1.1157  -10.4609 O   0  0  0  0  0  0  0  0  0  0  0  0
  -27.3945    1.5681   -7.7638 O   0  0  0  0  0  0  0  0  0  0  0  0
  -29.9676    2.6232   -7.3531 O   0  0  0  0  0  0  0  0  0  0  0  0
  -30.6071    0.8617   -5.0528 O   0  0  0  0  0  0  0  0  0  0  0  0
  -31.2968    2.4302   -8.8939 H   0  0  0  0  0  0  0  0  0  0  0  0
  -28.5379    3.3670   -9.4793 H   0  0  0  0  0  0  0  0  0  0  0  0
  -29.6864    0.6591  -10.0232 H   0  0  0  0  0  0  0  0  0  0  0  0
  -28.3647   -0.1874   -8.1758 H   0  0  0  0  0  0  0  0  0  0  0  0
  -30.5031    0.6083   -7.5848 H   0  0  0  0  0  0  0  0  0  0  0  0
  -28.7974    1.7351   -5.4124 H   0  0  0  0  0  0  0  0  0  0  0  0
  -28.8912    0.0071   -5.7331 H   0  0  0  0  0  0  0  0  0  0  0  0
  -29.9048    4.8416   -8.3523 H   0  0  0  0  0  0  0  0  0  0  0  0
  -30.6446    2.3508  -11.1426 H   0  0  0  0  0  0  0  0  0  0  0  0
  -27.0214    1.6780  -10.1192 H   0  0  0  0  0  0  0  0  0  0  0  0
  -27.5700    2.5218   -7.7866 H   0  0  0  0  0  0  0  0  0  0  0  0
  -31.0823    1.7055   -5.1092 H   0  0  0  0  0  0  0  0  0  0  0  0
  1  2  1  0
  2  3  1  0
  3  4  1  0
  4  5  1  0
  5  6  1  0
  1  7  1  0
  2  8  1  0
  3  9  1  0
  4 10  1  0
  1 11  1  0
  5 11  1  0
  6 12  1  0
  1 13  1  6
  2 14  1  1
  3 15  1  6
  4 16  1  6
  5 17  1  6
  6 18  1  0
  6 19  1  0
  7 20  1  0
  8 21  1  0
  9 22  1  0
 10 23  1  0
 12 24  1  0
M  END
