6ZR8_QOZ_A_302
     RDKit          3D

 61 64  0  0  0  0  0  0  0  0999 V2000
   -6.4478    3.3080   14.0306 C   0  0  0  0  0  0  0  0  0  0  0  0
   -7.1841    2.4379   14.8396 C   0  0  0  0  0  0  0  0  0  0  0  0
   -6.5236    1.5712   15.7220 C   0  0  0  0  0  0  0  0  0  0  0  0
   -7.4342    0.4910   16.7680 S   0  0  1  0  0  6  0  0  0  0  0  0
   -8.7665    1.1115   17.0813 O   0  0  0  0  0  0  0  0  0  0  0  0
   -7.6637   -0.8232   16.0778 O   0  0  0  0  0  0  0  0  0  0  0  0
   -5.1271    1.5709   15.7780 C   0  0  0  0  0  0  0  0  0  0  0  0
   -4.3899    2.4430   14.9740 C   0  0  0  0  0  0  0  0  0  0  0  0
   -5.0458    3.3161   14.0835 C   0  0  0  0  0  0  0  0  0  0  0  0
   -4.3150    4.2719   13.2904 N   0  0  0  0  0  0  0  0  0  0  0  0
   -3.0442    4.0068   12.6791 C   0  0  0  0  0  0  0  0  0  0  0  0
   -2.2381    3.1930   13.2085 O   0  0  0  0  0  0  0  0  0  0  0  0
   -2.6480    4.7247   11.4261 C   0  0  1  0  0  0  0  0  0  0  0  0
   -1.2777    4.3318   11.0275 N   0  0  0  0  0  0  0  0  0  0  0  0
   -0.3012    4.4122   12.1454 C   0  0  1  0  0  0  0  0  0  0  0  0
    0.4431    5.7571   12.2086 C   0  0  1  0  0  0  0  0  0  0  0  0
   -0.8064    5.0856    9.8515 C   0  0  2  0  0  0  0  0  0  0  0  0
   -0.5556    6.5796   10.1725 C   0  0  1  0  0  0  0  0  0  0  0  0
   -0.3975    6.8236   11.6284 N   0  0  0  0  0  0  0  0  0  0  0  0
    0.1562    8.1743   11.9252 C   0  0  2  0  0  0  0  0  0  0  0  0
    0.5312    8.3152   13.3923 C   0  0  0  0  0  0  0  0  0  0  0  0
    1.0409    7.2252   14.1268 C   0  0  0  0  0  0  0  0  0  0  0  0
    1.3505    7.3695   15.4809 C   0  0  0  0  0  0  0  0  0  0  0  0
    1.1387    8.5925   16.1219 C   0  0  0  0  0  0  0  0  0  0  0  0
    0.6134    9.6738   15.4101 C   0  0  0  0  0  0  0  0  0  0  0  0
    0.3086    9.5370   14.0534 C   0  0  0  0  0  0  0  0  0  0  0  0
   -0.8246    9.2859   11.5845 C   0  0  0  0  0  0  0  0  0  0  0  0
   -1.9393    9.0410   10.7627 C   0  0  0  0  0  0  0  0  0  0  0  0
   -2.8248   10.0734   10.4381 C   0  0  0  0  0  0  0  0  0  0  0  0
   -2.6083   11.3598   10.9362 C   0  0  0  0  0  0  0  0  0  0  0  0
   -1.5097   11.6149   11.7679 C   0  0  0  0  0  0  0  0  0  0  0  0
   -0.6220   10.5848   12.0903 C   0  0  0  0  0  0  0  0  0  0  0  0
   -6.5609    0.2253   18.2329 N   0  0  0  0  0  0  0  0  0  0  0  0
   -6.9693    3.9833   13.3637 H   0  0  0  0  0  0  0  0  0  0  0  0
   -8.2630    2.4479   14.7840 H   0  0  0  0  0  0  0  0  0  0  0  0
   -4.6045    0.9081   16.4593 H   0  0  0  0  0  0  0  0  0  0  0  0
   -3.3125    2.4542   15.0798 H   0  0  0  0  0  0  0  0  0  0  0  0
   -4.6899    5.2450   13.2236 H   0  0  0  0  0  0  0  0  0  0  0  0
   -3.3792    4.4495   10.6357 H   0  0  0  0  0  0  0  0  0  0  0  0
   -2.7282    5.8237   11.5774 H   0  0  0  0  0  0  0  0  0  0  0  0
   -0.7908    4.2312   13.1204 H   0  0  0  0  0  0  0  0  0  0  0  0
    0.4421    3.5986   12.0234 H   0  0  0  0  0  0  0  0  0  0  0  0
    0.6937    5.9631   13.2710 H   0  0  0  0  0  0  0  0  0  0  0  0
    1.4061    5.6805   11.6540 H   0  0  0  0  0  0  0  0  0  0  0  0
   -1.5286    4.9882    9.0132 H   0  0  0  0  0  0  0  0  0  0  0  0
    0.1403    4.6270    9.4918 H   0  0  0  0  0  0  0  0  0  0  0  0
    0.3433    6.9276    9.6127 H   0  0  0  0  0  0  0  0  0  0  0  0
   -1.4328    7.1517    9.8006 H   0  0  0  0  0  0  0  0  0  0  0  0
    1.0823    8.3119   11.3189 H   0  0  0  0  0  0  0  0  0  0  0  0
    1.2111    6.2662   13.6524 H   0  0  0  0  0  0  0  0  0  0  0  0
    1.7548    6.5321   16.0342 H   0  0  0  0  0  0  0  0  0  0  0  0
    1.3800    8.6995   17.1704 H   0  0  0  0  0  0  0  0  0  0  0  0
    0.4413   10.6209   15.9088 H   0  0  0  0  0  0  0  0  0  0  0  0
   -0.1031   10.3825   13.5173 H   0  0  0  0  0  0  0  0  0  0  0  0
   -2.1133    8.0535   10.3522 H   0  0  0  0  0  0  0  0  0  0  0  0
   -3.6744    9.8740    9.7920 H   0  0  0  0  0  0  0  0  0  0  0  0
   -3.2866   12.1615   10.6772 H   0  0  0  0  0  0  0  0  0  0  0  0
   -1.3398   12.6138   12.1506 H   0  0  0  0  0  0  0  0  0  0  0  0
    0.2233   10.8022   12.7318 H   0  0  0  0  0  0  0  0  0  0  0  0
   -7.2684    0.1474   18.9945 H   0  0  0  0  0  0  0  0  0  0  0  0
   -6.0086    1.0925   18.4242 H   0  0  0  0  0  0  0  0  0  0  0  0
  1  2  2  0
  2  3  1  0
  3  4  1  0
  4  5  2  0
  4  6  2  0
  3  7  2  0
  7  8  1  0
  8  9  2  0
  1  9  1  0
  9 10  1  0
 10 11  1  0
 11 12  2  0
 11 13  1  0
 13 14  1  0
 14 15  1  0
 15 16  1  0
 14 17  1  0
 17 18  1  0
 16 19  1  0
 18 19  1  0
 19 20  1  0
 20 21  1  0
 21 22  2  0
 22 23  1  0
 23 24  2  0
 24 25  1  0
 21 26  1  0
 25 26  2  0
 20 27  1  0
 27 28  2  0
 28 29  1  0
 29 30  2  0
 30 31  1  0
 31 32  2  0
 27 32  1  0
  4 33  1  1
  1 34  1  0
  2 35  1  0
  7 36  1  0
  8 37  1  0
 10 38  1  0
 13 39  1  6
 13 40  1  0
 15 41  1  1
 15 42  1  0
 16 43  1  1
 16 44  1  0
 17 45  1  6
 17 46  1  0
 18 47  1  6
 18 48  1  0
 20 49  1  6
 22 50  1  0
 23 51  1  0
 24 52  1  0
 25 53  1  0
 26 54  1  0
 28 55  1  0
 29 56  1  0
 30 57  1  0
 31 58  1  0
 32 59  1  0
 33 60  1  0
 33 61  1  0
M  END
