7T0D_FPP_B_646
     RDKit          3D

 52 51  0  0  0  0  0  0  0  0999 V2000
   34.2807  -28.7719   -0.9037 C   0  0  0  0  0  0  0  0  0  0  0  0
   33.9857  -27.8995    0.1487 O   0  0  0  0  0  0  0  0  0  0  0  0
   33.4185  -30.0269   -0.7835 C   0  0  0  0  0  0  0  0  0  0  0  0
   32.6735  -30.3834   -1.8060 C   0  0  0  0  0  0  0  0  0  0  0  0
   32.6999  -29.5142   -3.0457 C   0  0  0  0  0  0  0  0  0  0  0  0
   31.7717  -31.6192   -1.8270 C   0  0  0  0  0  0  0  0  0  0  0  0
   30.4087  -31.4004   -1.1852 C   0  0  0  0  0  0  0  0  0  0  0  0
   29.4263  -32.4032   -1.8009 C   0  0  0  0  0  0  0  0  0  0  0  0
   29.5242  -32.7683   -3.0661 C   0  0  0  0  0  0  0  0  0  0  0  0
   30.6157  -32.1838   -3.9610 C   0  0  0  0  0  0  0  0  0  0  0  0
   28.5207  -33.7529   -3.6787 C   0  0  0  0  0  0  0  0  0  0  0  0
   27.0821  -33.2409   -3.7297 C   0  0  0  0  0  0  0  0  0  0  0  0
   26.3687  -34.0251   -4.8334 C   0  0  0  0  0  0  0  0  0  0  0  0
   25.6209  -35.0770   -4.5828 C   0  0  0  0  0  0  0  0  0  0  0  0
   25.4107  -35.5654   -3.1507 C   0  0  0  0  0  0  0  0  0  0  0  0
   24.9540  -35.8124   -5.7446 C   0  0  0  0  0  0  0  0  0  0  0  0
   33.2632  -28.5143    1.4961 P   0  0  2  0  0  5  0  0  0  0  0  0
   32.8636  -29.9515    1.2801 O   0  0  0  0  0  0  0  0  0  0  0  0
   32.0704  -27.6576    1.8553 O   0  0  0  0  0  0  0  0  0  0  0  0
   34.3518  -28.5017    2.7290 O   0  0  0  0  0  0  0  0  0  0  0  0
   35.9778  -28.6674    2.5757 P   0  0  2  0  0  5  0  0  0  0  0  0
   36.4066  -29.9876    3.1675 O   0  0  0  0  0  0  0  0  0  0  0  0
   36.6947  -27.5248    3.2546 O   0  0  0  0  0  0  0  0  0  0  0  0
   36.2739  -28.6528    1.0875 O   0  0  0  0  0  0  0  0  0  0  0  0
   35.3145  -29.0444   -0.8616 H   0  0  0  0  0  0  0  0  0  0  0  0
   34.0765  -28.2876   -1.8356 H   0  0  0  0  0  0  0  0  0  0  0  0
   33.4210  -30.5849    0.0847 H   0  0  0  0  0  0  0  0  0  0  0  0
   33.3676  -28.6925   -2.8911 H   0  0  0  0  0  0  0  0  0  0  0  0
   31.7160  -29.1421   -3.2417 H   0  0  0  0  0  0  0  0  0  0  0  0
   33.0348  -30.0937   -3.8805 H   0  0  0  0  0  0  0  0  0  0  0  0
   32.2686  -32.4077   -1.3014 H   0  0  0  0  0  0  0  0  0  0  0  0
   31.5957  -31.8575   -2.8553 H   0  0  0  0  0  0  0  0  0  0  0  0
   30.0744  -30.4019   -1.3752 H   0  0  0  0  0  0  0  0  0  0  0  0
   30.4699  -31.5435   -0.1266 H   0  0  0  0  0  0  0  0  0  0  0  0
   28.6746  -32.8003   -1.2158 H   0  0  0  0  0  0  0  0  0  0  0  0
   31.2292  -31.5202   -3.3883 H   0  0  0  0  0  0  0  0  0  0  0  0
   30.1647  -31.6454   -4.7682 H   0  0  0  0  0  0  0  0  0  0  0  0
   31.2177  -32.9767   -4.3534 H   0  0  0  0  0  0  0  0  0  0  0  0
   28.5356  -34.6507   -3.0969 H   0  0  0  0  0  0  0  0  0  0  0  0
   28.8253  -33.9068   -4.6929 H   0  0  0  0  0  0  0  0  0  0  0  0
   27.0716  -32.1952   -3.9561 H   0  0  0  0  0  0  0  0  0  0  0  0
   26.5942  -33.3769   -2.7872 H   0  0  0  0  0  0  0  0  0  0  0  0
   26.4788  -33.7163   -5.8120 H   0  0  0  0  0  0  0  0  0  0  0  0
   25.9495  -34.9336   -2.4758 H   0  0  0  0  0  0  0  0  0  0  0  0
   25.7674  -36.5702   -3.0604 H   0  0  0  0  0  0  0  0  0  0  0  0
   24.3679  -35.5344   -2.9127 H   0  0  0  0  0  0  0  0  0  0  0  0
   25.2119  -35.3325   -6.6655 H   0  0  0  0  0  0  0  0  0  0  0  0
   23.8918  -35.7919   -5.6170 H   0  0  0  0  0  0  0  0  0  0  0  0
   25.2913  -36.8277   -5.7646 H   0  0  0  0  0  0  0  0  0  0  0  0
   31.4323  -27.6690    1.1248 H   0  0  0  0  0  0  0  0  0  0  0  0
   36.5008  -27.5406    4.2049 H   0  0  0  0  0  0  0  0  0  0  0  0
   35.8104  -29.3890    0.6584 H   0  0  0  0  0  0  0  0  0  0  0  0
  1  2  1  0
  1  3  1  0
  3  4  2  3
  4  5  1  0
  4  6  1  0
  6  7  1  0
  7  8  1  0
  8  9  2  3
  9 10  1  0
  9 11  1  0
 11 12  1  0
 12 13  1  0
 13 14  2  3
 14 15  1  0
 14 16  1  0
 17  2  1  6
 17 18  2  0
 17 19  1  0
 17 20  1  0
 21 20  1  6
 21 22  2  0
 21 23  1  0
 21 24  1  0
  1 25  1  0
  1 26  1  0
  3 27  1  0
  5 28  1  0
  5 29  1  0
  5 30  1  0
  6 31  1  0
  6 32  1  0
  7 33  1  0
  7 34  1  0
  8 35  1  0
 10 36  1  0
 10 37  1  0
 10 38  1  0
 11 39  1  0
 11 40  1  0
 12 41  1  0
 12 42  1  0
 13 43  1  0
 15 44  1  0
 15 45  1  0
 15 46  1  0
 16 47  1  0
 16 48  1  0
 16 49  1  0
 19 50  1  0
 23 51  1  0
 24 52  1  0
M  END
