6Z2C_Q5E_C_201
     RDKit          3D

 39 41  0  0  0  0  0  0  0  0999 V2000
  -19.1450    5.9262   22.6472 O   0  0  0  0  0  0  0  0  0  0  0  0
  -19.8461    6.7873   23.2420 C   0  0  0  0  0  0  0  0  0  0  0  0
  -19.3328    7.6737   24.3387 C   0  0  1  0  0  0  0  0  0  0  0  0
  -18.3409    8.7873   23.8881 C   0  0  1  0  0  0  0  0  0  0  0  0
  -18.6380    9.9007   24.9013 C   0  0  2  0  0  0  0  0  0  0  0  0
  -17.7302   11.4312   24.5929 Cl  0  0  0  0  0  0  0  0  0  0  0  0
  -18.3485    9.4503   26.6236 Cl  0  0  0  0  0  0  0  0  0  0  0  0
  -16.6330    8.2696   23.7992 Cl  0  0  0  0  0  0  0  0  0  0  0  0
  -18.8880    9.4352   22.6319 C   0  0  0  0  0  0  0  0  0  0  0  0
  -18.2147    9.3413   21.0099 Cl  0  0  0  0  0  0  0  0  0  0  0  0
  -19.9588   10.1440   22.9972 C   0  0  0  0  0  0  0  0  0  0  0  0
  -20.9433   11.1480   21.9409 Cl  0  0  0  0  0  0  0  0  0  0  0  0
  -20.1160    9.9623   24.4936 C   0  0  2  0  0  0  0  0  0  0  0  0
  -21.0853   11.2167   25.3180 Cl  0  0  0  0  0  0  0  0  0  0  0  0
  -20.5823    8.5008   24.7650 C   0  0  1  0  0  0  0  0  0  0  0  0
  -21.6716    7.9953   23.8650 C   0  0  0  0  0  0  0  0  0  0  0  0
  -22.8670    8.3894   23.9174 O   0  0  0  0  0  0  0  0  0  0  0  0
  -21.2172    7.0112   22.9475 N   0  0  0  0  0  0  0  0  0  0  0  0
  -22.0598    6.1723   22.0988 C   0  0  1  0  0  0  0  0  0  0  0  0
  -21.5022    6.1384   20.6710 C   0  0  1  0  0  0  0  0  0  0  0  0
  -20.8339    4.7978   20.3177 C   0  0  2  0  0  0  0  0  0  0  0  0
  -21.6829    3.8612   19.4388 C   0  0  1  0  0  0  0  0  0  0  0  0
  -21.5657    4.1759   17.9421 C   0  0  2  0  0  0  0  0  0  0  0  0
  -21.3067    2.9243   17.1649 C   0  0  0  0  0  0  0  0  0  0  0  0
  -20.0088    2.4358   17.0516 O   0  0  0  0  0  0  0  0  0  0  0  0
  -22.2552    2.3352   16.5808 O   0  0  0  0  0  0  0  0  0  0  0  0
  -18.9353    7.0663   25.1812 H   0  0  0  0  0  0  0  0  0  0  0  0
  -20.8435    8.3295   25.8323 H   0  0  0  0  0  0  0  0  0  0  0  0
  -22.0987    5.1432   22.5172 H   0  0  0  0  0  0  0  0  0  0  0  0
  -23.0915    6.5826   22.0989 H   0  0  0  0  0  0  0  0  0  0  0  0
  -22.3078    6.3732   19.9439 H   0  0  0  0  0  0  0  0  0  0  0  0
  -20.7346    6.9367   20.5717 H   0  0  0  0  0  0  0  0  0  0  0  0
  -20.5791    4.2646   21.2595 H   0  0  0  0  0  0  0  0  0  0  0  0
  -19.8750    5.0082   19.7956 H   0  0  0  0  0  0  0  0  0  0  0  0
  -21.3277    2.8218   19.6158 H   0  0  0  0  0  0  0  0  0  0  0  0
  -22.7475    3.8976   19.7535 H   0  0  0  0  0  0  0  0  0  0  0  0
  -20.7379    4.8977   17.7683 H   0  0  0  0  0  0  0  0  0  0  0  0
  -22.5094    4.6283   17.5713 H   0  0  0  0  0  0  0  0  0  0  0  0
  -19.7736    1.7444   16.3496 H   0  0  0  0  0  0  0  0  0  0  0  0
  1  2  2  0
  3  2  1  0
  3  4  1  0
  4  5  1  0
  5  6  1  6
  5  7  1  0
  4  8  1  6
  4  9  1  0
  9 10  1  0
  9 11  2  0
 11 12  1  0
  5 13  1  0
 11 13  1  0
 13 14  1  1
 13 15  1  0
  3 15  1  0
 15 16  1  0
 16 17  2  0
 16 18  1  0
  2 18  1  0
 18 19  1  0
 19 20  1  0
 20 21  1  0
 21 22  1  0
 22 23  1  0
 23 24  1  0
 24 25  1  0
 24 26  2  0
  3 27  1  1
 15 28  1  1
 19 29  1  1
 19 30  1  0
 20 31  1  6
 20 32  1  0
 21 33  1  1
 21 34  1  0
 22 35  1  6
 22 36  1  0
 23 37  1  1
 23 38  1  0
 25 39  1  0
M  END
