7UP3_NZ0_A_305
     RDKit          3D

 23 25  0  0  0  0  0  0  0  0999 V2000
   -4.1860    1.6900  -11.4420 C   0  0  0  0  0  0  0  0  0  0  0  0
   -4.0850    2.2320  -12.7300 C   0  0  0  0  0  0  0  0  0  0  0  0
   -5.2730    2.3340  -13.6250 C   0  0  0  0  0  0  0  0  0  0  0  0
   -6.1960    3.4260  -13.4960 C   0  0  0  0  0  0  0  0  0  0  0  0
   -2.8170    2.7000  -13.1220 C   0  0  0  0  0  0  0  0  0  0  0  0
   -5.4630    1.4340  -14.6770 C   0  0  0  0  0  0  0  0  0  0  0  0
    0.2070    3.1400  -10.0590 O   0  0  0  0  0  0  0  0  0  0  0  0
   -9.0960    4.7090  -15.9570 O   0  0  0  0  0  0  0  0  0  0  0  0
   -5.4890    5.7940  -10.9000 N   0  0  0  0  0  0  0  0  0  0  0  0
   -0.5980    1.9840  -10.1120 C   0  0  0  0  0  0  0  0  0  0  0  0
   -6.6040    5.3420  -10.5220 N   0  0  0  0  0  0  0  0  0  0  0  0
   -7.0010    4.4140  -11.4740 N   0  0  0  0  0  0  0  0  0  0  0  0
   -7.2060    3.5520  -14.5080 C   0  0  0  0  0  0  0  0  0  0  0  0
   -8.4470    4.8170  -14.6730 S   0  0  0  0  0  0  0  0  0  0  0  0
   -7.7170    6.0390  -14.4240 O   0  0  0  0  0  0  0  0  0  0  0  0
   -9.6000    4.6670  -13.5480 N   0  0  0  0  0  0  0  0  0  0  0  0
   -6.0620    4.3580  -12.4060 C   0  0  0  0  0  0  0  0  0  0  0  0
   -5.0770    5.2380  -12.0240 N   0  0  0  0  0  0  0  0  0  0  0  0
   -7.3920    2.6810  -15.4610 N   0  0  0  0  0  0  0  0  0  0  0  0
   -6.5470    1.5920  -15.5420 C   0  0  0  0  0  0  0  0  0  0  0  0
   -1.7100    2.6080  -12.2760 C   0  0  0  0  0  0  0  0  0  0  0  0
   -1.8210    2.0640  -10.9930 C   0  0  0  0  0  0  0  0  0  0  0  0
   -3.0870    1.6050  -10.5790 C   0  0  0  0  0  0  0  0  0  0  0  0
  1  2  2  0
  2  3  1  0
  3  4  1  0
  2  5  1  0
  3  6  2  0
  7 10  1  0
  9 11  1  0
 11 12  2  0
  4 13  2  0
  8 14  2  0
 13 14  1  0
 14 15  2  0
 14 16  1  0
  4 17  1  0
 12 17  1  0
 17 18  2  0
  9 18  1  0
 13 19  1  0
 19 20  2  0
  6 20  1  0
  5 21  2  0
 21 22  1  0
 10 22  1  0
  1 23  1  0
 22 23  2  0
M  END
$$$$
7UP3_NZ0_B_305
     RDKit          3D

 23 25  0  0  0  0  0  0  0  0999 V2000
   -5.8600   36.5400  -21.5230 C   0  0  0  0  0  0  0  0  0  0  0  0
   -5.2820   35.6200  -20.6060 C   0  0  0  0  0  0  0  0  0  0  0  0
   -5.5720   35.5080  -19.1450 C   0  0  0  0  0  0  0  0  0  0  0  0
   -6.4030   34.4890  -18.6030 C   0  0  0  0  0  0  0  0  0  0  0  0
   -4.3210   34.7200  -21.1020 C   0  0  0  0  0  0  0  0  0  0  0  0
   -4.9450   36.3890  -18.2110 C   0  0  0  0  0  0  0  0  0  0  0  0
   -4.6280   36.0040  -25.7870 O   0  0  0  0  0  0  0  0  0  0  0  0
   -7.1030   33.3760  -14.8570 O   0  0  0  0  0  0  0  0  0  0  0  0
   -7.7720   32.0390  -20.9930 N   0  0  0  0  0  0  0  0  0  0  0  0
   -3.9340   35.3700  -24.7530 C   0  0  0  0  0  0  0  0  0  0  0  0
   -8.8530   32.5960  -20.5050 N   0  0  0  0  0  0  0  0  0  0  0  0
   -8.4380   33.5210  -19.5840 N   0  0  0  0  0  0  0  0  0  0  0  0
   -6.5570   34.4380  -17.1800 C   0  0  0  0  0  0  0  0  0  0  0  0
   -7.4860   33.2280  -16.2620 S   0  0  0  0  0  0  0  0  0  0  0  0
   -7.1830   31.9440  -16.8870 O   0  0  0  0  0  0  0  0  0  0  0  0
   -9.0690   33.4980  -16.3960 N   0  0  0  0  0  0  0  0  0  0  0  0
   -7.0980   33.5220  -19.5180 C   0  0  0  0  0  0  0  0  0  0  0  0
   -6.6750   32.5690  -20.4260 N   0  0  0  0  0  0  0  0  0  0  0  0
   -6.0170   35.2630  -16.3280 N   0  0  0  0  0  0  0  0  0  0  0  0
   -5.2590   36.2940  -16.8620 C   0  0  0  0  0  0  0  0  0  0  0  0
   -3.9330   34.6960  -22.4050 C   0  0  0  0  0  0  0  0  0  0  0  0
   -4.4750   35.5550  -23.3430 C   0  0  0  0  0  0  0  0  0  0  0  0
   -5.4460   36.5170  -22.8990 C   0  0  0  0  0  0  0  0  0  0  0  0
  1  2  2  0
  2  3  1  0
  3  4  1  0
  2  5  1  0
  3  6  2  0
  7 10  1  0
  9 11  1  0
 11 12  2  0
  4 13  2  0
  8 14  2  0
 13 14  1  0
 14 15  2  0
 14 16  1  0
  4 17  1  0
 12 17  1  0
 17 18  2  0
  9 18  1  0
 13 19  1  0
 19 20  2  0
  6 20  1  0
  5 21  2  0
 21 22  1  0
 10 22  1  0
  1 23  1  0
 22 23  2  0
M  END
$$$$
