
     RDKit          3D

 22 24  0  0  0  0  0  0  0  0999 V2000
   16.1138  -14.4561   -0.5427 N   0  0  0  0  0  0  0  0  0  0  0  0
   16.7299  -13.4869   -1.1320 C   0  0  0  0  0  0  0  0  0  0  0  0
   14.8151  -16.2791   -3.5278 C   0  0  0  0  0  0  0  0  0  0  0  0
   14.1770  -17.3530   -2.9083 C   0  0  0  0  0  0  0  0  0  0  0  0
   14.1855  -17.4566   -1.5172 C   0  0  0  0  0  0  0  0  0  0  0  0
   14.8321  -16.4867   -0.7454 C   0  0  0  0  0  0  0  0  0  0  0  0
   15.4601  -15.3143   -2.7449 C   0  0  0  0  0  0  0  0  0  0  0  0
   17.5116  -12.1635   -3.0351 C   0  0  0  0  0  0  0  0  0  0  0  0
   16.3853   -8.6364   -4.2805 C   0  0  2  0  0  0  0  0  0  0  0  0
   16.5496  -11.0608   -3.4605 C   0  0  0  0  0  0  0  0  0  0  0  0
   17.0544  -10.0098   -4.4293 C   0  0  0  0  0  0  0  0  0  0  0  0
   16.1758   -8.2330   -2.8003 C   0  0  2  0  0  0  0  0  0  0  0  0
   16.1390  -14.1613   -3.3651 C   0  0  0  0  0  0  0  0  0  0  0  0
   15.4922   -6.8665   -2.6904 C   0  0  0  0  0  0  0  0  0  0  0  0
   14.5544   -6.5755   -3.8586 C   0  0  0  0  0  0  0  0  0  0  0  0
   14.0473   -7.8576   -4.5030 C   0  0  0  0  0  0  0  0  0  0  0  0
   15.4757  -15.4059   -1.3526 C   0  0  0  0  0  0  0  0  0  0  0  0
   15.1237   -8.6801   -5.0569 N   0  0  0  0  0  0  0  0  0  0  0  0
   16.7826  -13.2968   -2.4932 N   0  0  0  0  0  0  0  0  0  0  0  0
   16.0856  -13.9978   -4.5821 O   0  0  0  0  0  0  0  0  0  0  0  0
   15.3744  -11.0592   -3.0797 O   0  0  0  0  0  0  0  0  0  0  0  0
   17.4186   -8.1602   -2.1098 O   0  0  0  0  0  0  0  0  0  0  0  0
  1  2  4  0
  3  4  4  0
  4  5  4  0
  5  6  4  0
  3  7  4  0
  8 10  1  0
  9 11  1  1
 10 11  1  0
  9 12  1  0
  7 13  4  0
 12 14  1  0
 14 15  1  0
 15 16  1  0
  1 17  4  0
  7 17  4  0
  6 17  4  0
 16 18  1  0
  9 18  1  0
  8 19  1  0
  2 19  4  0
 13 19  4  0
 13 20  2  0
 10 21  2  0
 12 22  1  1
M  END
