7R59_I5F_A_602
     RDKit          3D

 18 20  0  0  0  0  0  0  0  0999 V2000
    5.5211    9.9857    4.0054 C   0  0  0  0  0  0  0  0  0  0  0  0
    6.6257   10.7032    4.4686 C   0  0  0  0  0  0  0  0  0  0  0  0
    7.2955   10.3243    5.6287 C   0  0  0  0  0  0  0  0  0  0  0  0
    5.6643   11.5786    2.4455 C   0  0  0  0  0  0  0  0  0  0  0  0
    4.0414   10.3227    1.9827 C   0  0  0  0  0  0  0  0  0  0  0  0
    5.1466   12.0865    1.3166 N   0  0  0  0  0  0  0  0  0  0  0  0
    4.1163   11.2861    1.0261 N   0  0  0  0  0  0  0  0  0  0  0  0
    5.0471    8.8648    4.6844 C   0  0  0  0  0  0  0  0  0  0  0  0
    5.0202   10.5147    2.8725 N   0  0  0  0  0  0  0  0  0  0  0  0
    7.4893    8.7991    7.4930 O   0  0  0  0  0  0  0  0  0  0  0  0
    6.8333    9.1952    6.3300 C   0  0  0  0  0  0  0  0  0  0  0  0
    5.7134    8.4705    5.8573 C   0  0  0  0  0  0  0  0  0  0  0  0
    6.9662   12.0230    3.4250 S   0  0  0  0  0  0  0  0  0  0  0  0
    8.1510   10.8859    5.9812 H   0  0  0  0  0  0  0  0  0  0  0  0
    3.3070    9.5289    2.0166 H   0  0  0  0  0  0  0  0  0  0  0  0
    4.1905    8.3121    4.3212 H   0  0  0  0  0  0  0  0  0  0  0  0
    7.1845    7.9913    8.0237 H   0  0  0  0  0  0  0  0  0  0  0  0
    5.3616    7.6026    6.4003 H   0  0  0  0  0  0  0  0  0  0  0  0
  1  2  4  0
  2  3  4  0
  4  6  4  0
  5  7  4  0
  6  7  4  0
  1  8  4  0
  5  9  4  0
  4  9  4  0
  1  9  4  0
  3 11  4  0
 10 11  1  0
  8 12  4  0
 11 12  4  0
  4 13  4  0
  2 13  4  0
  3 14  1  0
  5 15  1  0
  8 16  1  0
 10 17  1  0
 12 18  1  0
M  END
