8D5D_5DK_B_505
     RDKit          3D

 27 27  0  0  0  0  0  0  0  0999 V2000
   20.9601  -15.2148   30.1860 C   0  0  0  0  0  0  0  0  0  0  0  0
   20.4188  -14.4726   31.2248 C   0  0  0  0  0  0  0  0  0  0  0  0
   20.4416  -13.0631   31.1327 C   0  0  0  0  0  0  0  0  0  0  0  0
   20.9033  -12.4325   29.9476 C   0  0  0  0  0  0  0  0  0  0  0  0
   21.3640  -13.2307   28.8954 C   0  0  0  0  0  0  0  0  0  0  0  0
   18.2899  -10.8213   34.5267 C   0  0  0  0  0  0  0  0  0  0  0  0
   19.9132  -15.0871   32.2171 O   0  0  0  0  0  0  0  0  0  0  0  0
   22.2332  -10.0835   26.5155 O   0  0  0  0  0  0  0  0  0  0  0  0
   20.2369   -9.2305   27.8179 O   0  0  0  0  0  0  0  0  0  0  0  0
   22.5492   -8.2438   28.1820 O   0  0  0  0  0  0  0  0  0  0  0  0
   22.0063  -10.4675   29.0538 O   0  0  0  0  0  0  0  0  0  0  0  0
   19.2624  -12.6968   33.2237 N   0  0  0  0  0  0  0  0  0  0  0  0
   21.7309   -9.4730   27.8084 P   0  0  2  0  0  0  0  0  0  0  0  0
   21.0882  -16.7083   30.2835 C   0  0  0  0  0  0  0  0  0  0  0  0
   19.9767  -12.2220   32.2726 C   0  0  0  0  0  0  0  0  0  0  0  0
   20.8594  -10.9413   29.7678 C   0  0  0  0  0  0  0  0  0  0  0  0
   21.3797  -14.5553   29.0441 N   0  0  0  0  0  0  0  0  0  0  0  0
   19.0783  -12.1364   34.5610 C   0  0  1  0  0  0  0  0  0  0  0  0
   20.4134  -12.0048   35.3401 C   0  0  0  0  0  0  0  0  0  0  0  0
   21.2874  -11.2049   34.9159 O   0  0  0  0  0  0  0  0  0  0  0  0
   17.1294  -10.9900   33.5651 C   0  0  0  0  0  0  0  0  0  0  0  0
   16.7307   -9.6988   32.9085 C   0  0  0  0  0  0  0  0  0  0  0  0
   15.4156   -9.8654   32.3291 N   0  0  0  0  0  0  0  0  0  0  0  0
   14.3028   -9.9052   33.0524 C   0  0  0  0  0  0  0  0  0  0  0  0
   13.2017   -9.3603   32.5887 N   0  0  0  0  0  0  0  0  0  0  0  0
   14.2891  -10.5400   34.2071 N   0  0  0  0  0  0  0  0  0  0  0  0
   20.5324  -12.7124   36.3839 O   0  0  0  0  0  0  0  0  0  0  0  0
  1  2  2  0
  2  3  1  0
  3  4  2  0
  4  5  1  0
  2  7  1  0
 10 13  2  0
 13  8  1  6
 11 13  1  0
  9 13  1  0
  1 14  1  0
 12 15  2  0
  3 15  1  0
 11 16  1  0
  4 16  1  0
  1 17  1  0
  5 17  2  0
 18  6  1  6
 12 18  1  0
 18 19  1  0
 19 20  1  0
  6 21  1  0
 21 22  1  0
 22 23  1  0
 23 24  1  0
 24 25  1  0
 24 26  2  0
 19 27  2  0
M  END
