
     RDKit          3D

 27 28  0  0  0  0  0  0  0  0999 V2000
   34.2301   24.5511   28.4102 N   0  0  0  0  0  0  0  0  0  0  0  0
   33.4529   21.9825   26.4179 C   0  0  1  0  0  0  0  0  0  0  0  0
   32.4499   21.8659   27.5721 C   0  0  1  0  0  0  0  0  0  0  0  0
   32.5710   20.5287   28.3163 C   0  0  0  0  0  0  0  0  0  0  0  0
   34.8719   23.8794   29.4220 C   0  0  0  0  0  0  0  0  0  0  0  0
   35.7164   24.7055   30.3444 C   0  0  0  0  0  0  0  0  0  0  0  0
   36.3014   25.1786   32.7357 C   0  0  0  0  0  0  0  0  0  0  0  0
   37.6699   26.5411   34.8505 C   0  0  0  0  0  0  0  0  0  0  0  0
   37.5922   25.6672   32.5487 C   0  0  0  0  0  0  0  0  0  0  0  0
   39.7141   26.8448   36.1910 C   0  0  0  0  0  0  0  0  0  0  0  0
   37.5582   27.7418   37.0022 C   0  0  0  0  0  0  0  0  0  0  0  0
   38.3354   27.2207   35.8787 N   0  0  0  0  0  0  0  0  0  0  0  0
   38.2569   26.3347   33.5893 C   0  0  0  0  0  0  0  0  0  0  0  0
   36.3548   26.0650   34.9949 C   0  0  0  0  0  0  0  0  0  0  0  0
   35.6797   25.3952   33.9627 C   0  0  0  0  0  0  0  0  0  0  0  0
   35.5691   24.4902   31.6669 C   0  0  0  0  0  0  0  0  0  0  0  0
   36.6348   25.6492   29.8106 C   0  0  0  0  0  0  0  0  0  0  0  0
   37.3594   26.4101   29.3174 N   0  0  0  0  0  0  0  0  0  0  0  0
   34.7535   22.6638   29.5627 O   0  0  0  0  0  0  0  0  0  0  0  0
   32.8823   24.2123   28.0365 C   0  0  2  0  0  0  0  0  0  0  0  0
   32.6679   22.8987   28.5481 O   0  0  0  0  0  0  0  0  0  0  0  0
   31.6664   19.5673   27.7741 O   0  0  0  0  0  0  0  0  0  0  0  0
   33.3360   20.9160   25.4687 O   0  0  0  0  0  0  0  0  0  0  0  0
   33.2835   23.3203   25.6756 C   0  0  2  0  0  0  0  0  0  0  0  0
   34.5754   23.7748   25.2424 O   0  0  0  0  0  0  0  0  0  0  0  0
   32.5948   24.3951   26.5251 C   0  0  1  0  0  0  0  0  0  0  0  0
   31.1736   24.3067   26.2922 O   0  0  0  0  0  0  0  0  0  0  0  0
  2  3  1  0
  3  4  1  1
  1  5  1  0
  5  6  1  0
  7  9  4  0
  8 12  1  0
 10 12  1  0
 11 12  1  0
  9 13  4  0
  8 13  4  0
  8 14  4  0
  7 15  4  0
 14 15  4  0
  6 16  2  0
  7 16  1  0
  6 17  1  0
 17 18  3  0
  5 19  2  0
 20  1  1  6
  3 21  1  0
 20 21  1  0
  4 22  1  0
  2 23  1  6
  2 24  1  0
 24 25  1  1
 24 26  1  0
 20 26  1  0
 26 27  1  1
M  END
