6W59_SZD_A_602
     RDKit          3D

 45 47  0  0  0  0  0  0  0  0999 V2000
    2.2582  -37.1629  -11.5232 N   0  0  0  0  0  0  0  0  0  0  0  0
    1.1085  -39.5861  -13.1717 C   0  0  0  0  0  0  0  0  0  0  0  0
    2.3289  -39.5181  -12.4728 C   0  0  0  0  0  0  0  0  0  0  0  0
    3.3739  -40.3855  -12.8438 C   0  0  0  0  0  0  0  0  0  0  0  0
    2.5122  -38.5674  -11.3491 C   0  0  0  0  0  0  0  0  0  0  0  0
    2.4113  -36.1881  -10.4769 C   0  0  0  0  0  0  0  0  0  0  0  0
    2.3652  -35.5588   -8.1283 C   0  0  0  0  0  0  0  0  0  0  0  0
    2.6960  -34.8557  -10.8133 C   0  0  0  0  0  0  0  0  0  0  0  0
    6.2614  -32.6875  -11.1160 C   0  0  0  0  0  0  0  0  0  0  0  0
    8.0991  -32.5004  -12.6954 C   0  0  0  0  0  0  0  0  0  0  0  0
   10.0937  -33.7020  -13.6424 C   0  0  2  0  0  0  0  0  0  0  0  0
    3.2063  -41.2872  -13.8998 C   0  0  0  0  0  0  0  0  0  0  0  0
    1.9941  -41.3380  -14.5915 C   0  0  0  0  0  0  0  0  0  0  0  0
    0.9457  -40.4903  -14.2264 C   0  0  0  0  0  0  0  0  0  0  0  0
    4.2220  -42.1128  -14.2531 F   0  0  0  0  0  0  0  0  0  0  0  0
   -0.2344  -40.5492  -14.8912 F   0  0  0  0  0  0  0  0  0  0  0  0
    2.9377  -38.9928  -10.2403 O   0  0  0  0  0  0  0  0  0  0  0  0
    2.2295  -36.5295   -9.1244 C   0  0  0  0  0  0  0  0  0  0  0  0
    2.6743  -34.2404   -8.4699 C   0  0  0  0  0  0  0  0  0  0  0  0
    2.8423  -33.8839   -9.8140 C   0  0  0  0  0  0  0  0  0  0  0  0
    3.2399  -32.2247  -10.2507 S   0  0  1  0  0  6  0  0  0  0  0  0
    3.9357  -32.1743  -11.8404 N   0  0  0  0  0  0  0  0  0  0  0  0
    1.9796  -31.4069  -10.2367 O   0  0  0  0  0  0  0  0  0  0  0  0
    4.2163  -31.6379   -9.2697 O   0  0  0  0  0  0  0  0  0  0  0  0
    5.3457  -32.2860  -12.1060 C   0  0  0  0  0  0  0  0  0  0  0  0
    7.6225  -32.7956  -11.4138 C   0  0  0  0  0  0  0  0  0  0  0  0
    7.1871  -32.0898  -13.6856 C   0  0  0  0  0  0  0  0  0  0  0  0
    5.8252  -31.9836  -13.3892 C   0  0  0  0  0  0  0  0  0  0  0  0
    9.4766  -32.6277  -12.9365 O   0  0  0  0  0  0  0  0  0  0  0  0
    9.3081  -34.8380  -13.5637 F   0  0  0  0  0  0  0  0  0  0  0  0
   11.3216  -33.9690  -13.0683 F   0  0  0  0  0  0  0  0  0  0  0  0
   10.2874  -33.3533  -14.9671 F   0  0  0  0  0  0  0  0  0  0  0  0
    2.0687  -36.8142  -12.4900 H   0  0  0  0  0  0  0  0  0  0  0  0
    0.2725  -38.9577  -12.8943 H   0  0  0  0  0  0  0  0  0  0  0  0
    4.3237  -40.3594  -12.3240 H   0  0  0  0  0  0  0  0  0  0  0  0
    2.2243  -35.8281   -7.0893 H   0  0  0  0  0  0  0  0  0  0  0  0
    2.8191  -34.5805  -11.8536 H   0  0  0  0  0  0  0  0  0  0  0  0
    5.9381  -32.9158  -10.1110 H   0  0  0  0  0  0  0  0  0  0  0  0
    1.8657  -42.0373  -15.4077 H   0  0  0  0  0  0  0  0  0  0  0  0
    1.9610  -37.5376   -8.8382 H   0  0  0  0  0  0  0  0  0  0  0  0
    2.7776  -33.4992   -7.6879 H   0  0  0  0  0  0  0  0  0  0  0  0
    3.2708  -32.1289  -12.6448 H   0  0  0  0  0  0  0  0  0  0  0  0
    8.3135  -33.1097  -10.6414 H   0  0  0  0  0  0  0  0  0  0  0  0
    7.5160  -31.8513  -14.6869 H   0  0  0  0  0  0  0  0  0  0  0  0
    5.1396  -31.6690  -14.1662 H   0  0  0  0  0  0  0  0  0  0  0  0
  2  3  2  0
  3  4  1  0
  3  5  1  0
  1  5  1  0
  1  6  1  0
  6  8  2  0
  4 12  2  0
 12 13  1  0
 13 14  2  0
  2 14  1  0
 12 15  1  0
 14 16  1  0
  5 17  2  0
  6 18  1  0
  7 18  2  0
  7 19  1  0
  8 20  1  0
 19 20  2  0
 20 21  1  0
 21 22  1  6
 21 23  2  0
 21 24  2  0
  9 25  2  0
 22 25  1  0
 10 26  2  0
  9 26  1  0
 10 27  1  0
 27 28  2  0
 25 28  1  0
 11 29  1  0
 10 29  1  0
 11 30  1  6
 11 31  1  0
 11 32  1  0
  1 33  1  0
  2 34  1  0
  4 35  1  0
  7 36  1  0
  8 37  1  0
  9 38  1  0
 13 39  1  0
 18 40  1  0
 19 41  1  0
 22 42  1  0
 26 43  1  0
 27 44  1  0
 28 45  1  0
M  END
