8HFN_XGC_A_502
     RDKit          3D

 24 25  0  0  0  0  0  0  0  0999 V2000
   68.8404   -0.5334    1.1663 C   0  0  0  0  0  0  0  0  0  0  0  0
   73.3013   -5.3792    1.8308 C   0  0  0  0  0  0  0  0  0  0  0  0
   73.9048   -6.6213    1.7649 C   0  0  0  0  0  0  0  0  0  0  0  0
   75.3007   -6.6534    1.8118 C   0  0  0  0  0  0  0  0  0  0  0  0
   75.4497   -4.3909    1.9630 C   0  0  0  0  0  0  0  0  0  0  0  0
   71.5933   -1.4485    2.5970 C   0  0  0  0  0  0  0  0  0  0  0  0
   73.4399   -2.8761    1.9928 C   0  0  0  0  0  0  0  0  0  0  0  0
   74.0750   -1.7665    1.4336 C   0  0  0  0  0  0  0  0  0  0  0  0
   72.2157   -0.3550    2.0147 C   0  0  0  0  0  0  0  0  0  0  0  0
   73.4641   -0.5236    1.4388 C   0  0  0  0  0  0  0  0  0  0  0  0
   68.0236    0.5622    0.5028 C   0  0  2  0  0  0  0  0  0  0  0  0
   74.0679   -4.2208    1.9360 C   0  0  0  0  0  0  0  0  0  0  0  0
   75.0756   -8.9695    1.3734 C   0  0  0  0  0  0  0  0  0  0  0  0
   68.5833    0.9293   -0.8664 C   0  0  0  0  0  0  0  0  0  0  0  0
   72.1822   -2.7033    2.5802 C   0  0  0  0  0  0  0  0  0  0  0  0
   69.1472   -0.2816    2.4696 N   0  0  0  0  0  0  0  0  0  0  0  0
   76.0695   -5.5796    1.9007 N   0  0  0  0  0  0  0  0  0  0  0  0
   67.9179    1.7366    1.3881 N   0  0  0  0  0  0  0  0  0  0  0  0
   69.1606   -1.5519    0.5639 O   0  0  0  0  0  0  0  0  0  0  0  0
   75.8793   -7.8695    1.7899 O   0  0  0  0  0  0  0  0  0  0  0  0
   69.4612   -2.5174    3.6144 O   0  0  0  0  0  0  0  0  0  0  0  0
   70.3153   -0.4181    4.5963 O   0  0  0  0  0  0  0  0  0  0  0  0
   70.0783    1.9507   -0.7869 S   0  0  0  0  0  0  0  0  0  0  0  0
   70.0630   -1.2305    3.4444 S   0  0  1  0  0  0  0  0  0  0  0  0
  2  3  2  0
  3  4  1  0
  7  8  1  0
  6  9  2  0
  8 10  2  0
  9 10  1  0
  1 11  1  0
  2 12  1  0
  5 12  2  0
  7 12  1  0
 11 14  1  0
  7 15  2  0
  6 15  1  0
  1 16  1  0
  4 17  2  0
  5 17  1  0
 11 18  1  1
  1 19  2  0
 13 20  1  0
  4 20  1  0
 14 23  1  0
 21 24  2  0
  6 24  1  0
 22 24  2  0
 24 16  1  6
M  END
