8DP2_UMA_A_501
     RDKit          3D

 85 87  0  0  0  0  0  0  0  0999 V2000
   55.0456    1.9120   -1.1609 N   0  0  0  0  0  4  0  0  0  0  0  0
   54.5988    3.1473   -1.5875 C   0  0  0  0  0  0  0  0  0  0  0  0
   54.3367    4.0456   -0.5846 N   0  0  0  0  0  4  0  0  0  0  0  0
   54.4722    3.8332    0.7695 C   0  0  0  0  0  0  0  0  0  0  0  0
   54.9390    2.5236    1.1343 C   0  0  0  0  0  0  0  0  0  0  0  0
   55.2061    1.6232    0.1765 C   0  0  0  0  0  0  0  0  0  0  0  0
   54.4026    3.4127   -2.7663 O   0  0  0  0  0  0  0  0  0  0  0  0
   54.1792    4.7265    1.5523 O   0  0  0  0  0  0  0  0  0  0  0  0
   55.2990    0.8977   -2.1758 C   0  0  2  0  0  0  0  0  0  0  0  0
   54.0389    0.4451   -2.8899 C   0  0  1  0  0  0  0  0  0  0  0  0
   53.6315    1.3798   -3.8898 O   0  0  0  0  0  0  0  0  0  0  0  0
   54.5014   -0.9098   -3.4382 C   0  0  2  0  0  0  0  0  0  0  0  0
   55.5011   -1.3905   -2.3777 C   0  0  1  0  0  0  0  0  0  0  0  0
   55.7601   -0.2572   -1.5201 O   0  0  0  0  0  0  0  0  0  0  0  0
   55.1571   -0.7231   -4.6928 O   0  0  0  0  0  0  0  0  0  0  0  0
   55.0638   -2.5630   -1.5307 C   0  0  0  0  0  0  0  0  0  0  0  0
   53.6312   -2.4624   -1.3320 O   0  0  0  0  0  0  0  0  0  0  0  0
   52.9926   -2.0535    0.0497 P   0  0  2  0  0  5  0  0  0  0  0  0
   52.1294   -3.1368    0.5495 O   0  0  0  0  0  0  0  0  0  0  0  0
   52.3990   -0.6634   -0.0318 O   0  0  0  0  0  0  0  0  0  0  0  0
   54.2967   -1.9262    0.9492 O   0  0  0  0  0  0  0  0  0  0  0  0
   55.6171   -1.0540    0.8864 P   0  0  1  0  0  5  0  0  0  0  0  0
   55.5740    0.0147    1.9404 O   0  0  0  0  0  0  0  0  0  0  0  0
   56.8281   -1.9449    0.8712 O   0  0  0  0  0  0  0  0  0  0  0  0
   55.4742   -0.2859   -0.5348 O   0  0  0  0  0  0  0  0  0  0  0  0
   54.4602   -0.6948   -1.4158 C   0  0  1  0  0  0  0  0  0  0  0  0
   53.5799   -1.6936   -0.6795 C   0  0  1  0  0  0  0  0  0  0  0  0
   54.3928   -2.8133   -0.2312 N   0  0  0  0  0  0  0  0  0  0  0  0
   55.2155   -2.7601    0.8219 C   0  0  0  0  0  0  0  0  0  0  0  0
   56.2851   -2.1669    0.7818 O   0  0  0  0  0  0  0  0  0  0  0  0
   54.7420   -3.4545    2.0650 C   0  0  0  0  0  0  0  0  0  0  0  0
   52.9296   -0.9691    0.4998 C   0  0  2  0  0  0  0  0  0  0  0  0
   51.9708   -1.8710    1.0696 O   0  0  0  0  0  0  0  0  0  0  0  0
   52.0982    0.1679   -0.0714 C   0  0  1  0  0  0  0  0  0  0  0  0
   51.4442    0.8910    0.9658 O   0  0  0  0  0  0  0  0  0  0  0  0
   52.9868    1.1172   -0.8723 C   0  0  1  0  0  0  0  0  0  0  0  0
   53.6949    0.3950   -1.9046 O   0  0  0  0  0  0  0  0  0  0  0  0
   52.1821    2.1909   -1.5780 C   0  0  0  0  0  0  0  0  0  0  0  0
   51.0483    1.6386   -2.2665 O   0  0  0  0  0  0  0  0  0  0  0  0
   51.2167   -2.6644    0.1363 C   0  0  2  0  0  0  0  0  0  0  0  0
   50.5175   -1.7453   -0.8539 C   0  0  0  0  0  0  0  0  0  0  0  0
   49.5305   -2.1407   -1.4698 O   0  0  0  0  0  0  0  0  0  0  0  0
   50.2018   -3.4600    0.9255 C   0  0  0  0  0  0  0  0  0  0  0  0
   51.0491   -0.5264   -1.0161 N   0  0  0  0  0  0  0  0  0  0  0  0
   52.4855   -0.2919   -1.0151 C   0  0  1  0  0  0  0  0  0  0  0  0
   52.8948    0.6433    0.1111 C   0  0  0  0  0  0  0  0  0  0  0  0
   52.1563    0.9621    1.0290 O   0  0  0  0  0  0  0  0  0  0  0  0
   54.1517    1.0187    0.0054 O   0  0  0  0  0  0  0  0  0  0  0  0
   53.2389   -1.6056   -0.8322 C   0  0  0  0  0  0  0  0  0  0  0  0
   54.0184    4.9351   -0.8617 H   0  0  0  0  0  0  0  0  0  0  0  0
   55.0680    2.2771    2.1281 H   0  0  0  0  0  0  0  0  0  0  0  0
   55.5418    0.6863    0.4496 H   0  0  0  0  0  0  0  0  0  0  0  0
   55.9839    1.3269   -2.8769 H   0  0  0  0  0  0  0  0  0  0  0  0
   53.1616    0.3737   -2.2816 H   0  0  0  0  0  0  0  0  0  0  0  0
   54.3613    1.5267   -4.5116 H   0  0  0  0  0  0  0  0  0  0  0  0
   53.7028   -1.6020   -3.6059 H   0  0  0  0  0  0  0  0  0  0  0  0
   56.3610   -1.7537   -2.9007 H   0  0  0  0  0  0  0  0  0  0  0  0
   55.8916   -0.0990   -4.5841 H   0  0  0  0  0  0  0  0  0  0  0  0
   55.2976   -3.4796   -2.0309 H   0  0  0  0  0  0  0  0  0  0  0  0
   55.5715   -2.5511   -0.5889 H   0  0  0  0  0  0  0  0  0  0  0  0
   51.5949   -0.6864   -0.5739 H   0  0  0  0  0  0  0  0  0  0  0  0
   56.9055   -2.3998    1.7244 H   0  0  0  0  0  0  0  0  0  0  0  0
   54.9049   -1.1476   -2.2773 H   0  0  0  0  0  0  0  0  0  0  0  0
   52.8147   -2.0809   -1.3193 H   0  0  0  0  0  0  0  0  0  0  0  0
   54.3341   -3.6590   -0.7318 H   0  0  0  0  0  0  0  0  0  0  0  0
   53.7894   -3.9054    1.8807 H   0  0  0  0  0  0  0  0  0  0  0  0
   55.4469   -4.2105    2.3417 H   0  0  0  0  0  0  0  0  0  0  0  0
   54.6523   -2.7428    2.8589 H   0  0  0  0  0  0  0  0  0  0  0  0
   53.6677   -0.6380    1.2002 H   0  0  0  0  0  0  0  0  0  0  0  0
   51.3554   -0.2553   -0.7149 H   0  0  0  0  0  0  0  0  0  0  0  0
   52.1078    1.2800    1.5568 H   0  0  0  0  0  0  0  0  0  0  0  0
   53.6571    1.5618   -0.1668 H   0  0  0  0  0  0  0  0  0  0  0  0
   51.8369    2.8983   -0.8532 H   0  0  0  0  0  0  0  0  0  0  0  0
   52.8152    2.6610   -2.3013 H   0  0  0  0  0  0  0  0  0  0  0  0
   50.4605    1.2067   -1.6270 H   0  0  0  0  0  0  0  0  0  0  0  0
   51.8548   -3.3267   -0.4106 H   0  0  0  0  0  0  0  0  0  0  0  0
   49.5683   -2.7906    1.4690 H   0  0  0  0  0  0  0  0  0  0  0  0
   49.6091   -4.0468    0.2551 H   0  0  0  0  0  0  0  0  0  0  0  0
   50.7097   -4.1058    1.6109 H   0  0  0  0  0  0  0  0  0  0  0  0
   50.4445    0.2406   -1.1408 H   0  0  0  0  0  0  0  0  0  0  0  0
   52.7304    0.1537   -1.9566 H   0  0  0  0  0  0  0  0  0  0  0  0
   54.6645    0.7376   -0.7267 H   0  0  0  0  0  0  0  0  0  0  0  0
   52.9816   -2.0357    0.1131 H   0  0  0  0  0  0  0  0  0  0  0  0
   52.9713   -2.2824   -1.6166 H   0  0  0  0  0  0  0  0  0  0  0  0
   54.2922   -1.4202   -0.8650 H   0  0  0  0  0  0  0  0  0  0  0  0
  1  2  4  0
  2  3  4  0
  3  4  4  0
  4  5  4  0
  1  6  4  0
  5  6  4  0
  2  7  2  0
  4  8  2  0
  9  1  1  0
  9 10  1  0
 10 11  1  0
 10 12  1  0
 12 13  1  0
  9 14  1  0
 13 14  1  0
 12 15  1  0
 13 16  1  0
 16 17  1  0
 18 17  1  1
 18 19  2  0
 18 20  1  0
 18 21  1  0
 22 21  1  6
 22 23  2  0
 22 24  1  0
 22 25  1  0
 26 25  1  0
 26 27  1  0
 27 28  1  0
 28 29  1  0
 29 30  2  0
 29 31  1  0
 27 32  1  0
 32 33  1  0
 32 34  1  0
 34 35  1  0
 34 36  1  0
 26 37  1  0
 36 37  1  0
 36 38  1  0
 38 39  1  0
 33 40  1  0
 40 41  1  0
 41 42  2  0
 40 43  1  0
 41 44  1  0
 44 45  1  0
 45 46  1  0
 46 47  2  0
 46 48  1  0
 45 49  1  0
  3 50  1  0
  5 51  1  0
  6 52  1  0
  9 53  1  1
 10 54  1  6
 11 55  1  0
 12 56  1  1
 13 57  1  1
 15 58  1  0
 16 59  1  0
 16 60  1  0
 20 61  1  0
 24 62  1  0
 26 63  1  1
 27 64  1  1
 28 65  1  0
 31 66  1  0
 31 67  1  0
 31 68  1  0
 32 69  1  6
 34 70  1  1
 35 71  1  0
 36 72  1  6
 38 73  1  0
 38 74  1  0
 39 75  1  0
 40 76  1  1
 43 77  1  0
 43 78  1  0
 43 79  1  0
 44 80  1  0
 45 81  1  1
 48 82  1  0
 49 83  1  0
 49 84  1  0
 49 85  1  0
M  CHG  2   1   1   3   1
M  END
