7F5D_EUO_A_201
     RDKit          3D

 21 23  0  0  0  0  0  0  0  0999 V2000
   11.2320   -2.2902   28.8775 C   0  0  0  0  0  0  0  0  0  0  0  0
   11.2783   -2.4159   31.1386 C   0  0  0  0  0  0  0  0  0  0  0  0
    5.5280   -4.4417   32.1785 C   0  0  0  0  0  0  0  0  0  0  0  0
    5.5105   -4.9848   29.3520 C   0  0  0  0  0  0  0  0  0  0  0  0
    5.5049   -4.9942   27.1049 C   0  0  0  0  0  0  0  0  0  0  0  0
    6.7643   -4.3919   27.1026 C   0  0  0  0  0  0  0  0  0  0  0  0
    7.3487   -4.1127   28.3344 C   0  0  0  0  0  0  0  0  0  0  0  0
    8.7201   -3.4633   28.4961 C   0  0  0  0  0  0  0  0  0  0  0  0
    9.2378   -3.3042   29.7811 C   0  0  0  0  0  0  0  0  0  0  0  0
   10.5126   -2.7084   29.9673 C   0  0  0  0  0  0  0  0  0  0  0  0
   10.7030   -2.4588   27.5657 C   0  0  0  0  0  0  0  0  0  0  0  0
    9.4517   -3.0448   27.3849 C   0  0  0  0  0  0  0  0  0  0  0  0
   12.4480   -1.8293   30.6542 C   0  0  0  0  0  0  0  0  0  0  0  0
    5.3861   -5.0320   24.5765 C   0  0  0  0  0  0  0  0  0  0  0  0
    4.8940   -5.2734   28.2402 N   0  0  0  0  0  0  0  0  0  0  0  0
    6.6940   -4.4253   29.4230 N   0  0  0  0  0  0  0  0  0  0  0  0
   12.4031   -1.7644   29.3308 N   0  0  0  0  0  0  0  0  0  0  0  0
    4.8108   -5.3291   25.8795 N   0  0  0  0  0  0  0  0  0  0  0  0
    4.7890   -6.8140   31.1597 O   0  0  0  0  0  0  0  0  0  0  0  0
    3.2843   -5.0240   30.7704 O   0  0  0  0  0  0  0  0  0  0  0  0
    4.6931   -5.3847   30.8880 S   0  0  1  0  0  0  0  0  0  0  0  0
  5  6  2  0
  6  7  1  0
  7  8  1  0
  8  9  1  0
  2 10  1  0
  9 10  2  0
  1 10  1  0
  1 11  2  0
  8 12  2  0
 11 12  1  0
  2 13  2  0
  4 15  2  0
  5 15  1  0
  4 16  1  0
  7 16  2  0
 13 17  1  0
  1 17  1  0
  5 18  1  0
 14 18  1  0
 21  3  1  1
 20 21  2  0
 19 21  2  0
  4 21  1  0
M  END
