1T46_STI_A_3
     RDKit          3D

 68 72  0  0  0  0  0  0  0  0999 V2000
   32.9075   24.9185   47.1067 C   0  0  0  0  0  0  0  0  0  0  0  0
   32.0290   25.7060   46.3603 C   0  0  0  0  0  0  0  0  0  0  0  0
   30.7806   25.1892   46.0168 C   0  0  0  0  0  0  0  0  0  0  0  0
   30.4255   23.8994   46.3998 C   0  0  0  0  0  0  0  0  0  0  0  0
   31.2935   23.1604   47.1092 N   0  0  0  0  0  0  0  0  0  0  0  0
   32.5039   23.6379   47.4682 C   0  0  0  0  0  0  0  0  0  0  0  0
   29.8284   25.9936   45.2200 C   0  0  0  0  0  0  0  0  0  0  0  0
   30.2540   27.0757   44.4500 C   0  0  0  0  0  0  0  0  0  0  0  0
   29.3006   27.7703   43.7096 C   0  0  0  0  0  0  0  0  0  0  0  0
   28.0056   27.4074   43.7568 N   0  0  0  0  0  0  0  0  0  0  0  0
   27.6182   26.3664   44.5342 C   0  0  0  0  0  0  0  0  0  0  0  0
   28.5242   25.6623   45.2461 N   0  0  0  0  0  0  0  0  0  0  0  0
   26.3377   25.9625   44.6076 N   0  0  0  0  0  0  0  0  0  0  0  0
   25.4725   26.0086   43.5647 C   0  0  0  0  0  0  0  0  0  0  0  0
   24.1153   26.2314   43.7936 C   0  0  0  0  0  0  0  0  0  0  0  0
   23.2319   26.2505   42.7201 C   0  0  0  0  0  0  0  0  0  0  0  0
   23.6909   26.0440   41.4178 C   0  0  0  0  0  0  0  0  0  0  0  0
   25.0463   25.8245   41.1834 C   0  0  0  0  0  0  0  0  0  0  0  0
   25.9304   25.7870   42.2640 C   0  0  0  0  0  0  0  0  0  0  0  0
   25.4384   25.5927   39.8549 N   0  0  0  0  0  0  0  0  0  0  0  0
   25.0525   26.3093   38.8036 C   0  0  0  0  0  0  0  0  0  0  0  0
   26.0780   26.6798   37.7796 C   0  0  0  0  0  0  0  0  0  0  0  0
   27.1558   27.4841   38.1518 C   0  0  0  0  0  0  0  0  0  0  0  0
   28.1130   27.8263   37.2014 C   0  0  0  0  0  0  0  0  0  0  0  0
   27.9853   27.3585   35.8940 C   0  0  0  0  0  0  0  0  0  0  0  0
   26.9159   26.5471   35.5211 C   0  0  0  0  0  0  0  0  0  0  0  0
   25.9628   26.2054   36.4767 C   0  0  0  0  0  0  0  0  0  0  0  0
   29.0343   27.7257   34.8747 C   0  0  0  0  0  0  0  0  0  0  0  0
   29.2176   26.7132   33.8442 N   0  0  0  0  0  0  0  0  0  0  0  0
   29.3905   25.3404   34.3083 C   0  0  0  0  0  0  0  0  0  0  0  0
   29.8365   24.4747   33.1382 C   0  0  0  0  0  0  0  0  0  0  0  0
   28.8690   24.6586   32.0652 N   0  0  0  0  0  0  0  0  0  0  0  0
   28.9181   23.6170   31.0443 C   0  0  0  0  0  0  0  0  0  0  0  0
   28.6421   26.0079   31.5594 C   0  0  0  0  0  0  0  0  0  0  0  0
   28.3243   26.9484   32.7130 C   0  0  0  0  0  0  0  0  0  0  0  0
   23.9110   26.6878   38.6528 O   0  0  0  0  0  0  0  0  0  0  0  0
   23.5819   26.4523   45.1914 C   0  0  0  0  0  0  0  0  0  0  0  0
   33.8344   25.2781   47.3836 H   0  0  0  0  0  0  0  0  0  0  0  0
   32.3000   26.6576   46.0668 H   0  0  0  0  0  0  0  0  0  0  0  0
   29.5036   23.5144   46.1411 H   0  0  0  0  0  0  0  0  0  0  0  0
   33.1407   23.0423   48.0203 H   0  0  0  0  0  0  0  0  0  0  0  0
   31.2476   27.3539   44.4294 H   0  0  0  0  0  0  0  0  0  0  0  0
   29.5888   28.5679   43.1214 H   0  0  0  0  0  0  0  0  0  0  0  0
   26.0097   25.6134   45.4677 H   0  0  0  0  0  0  0  0  0  0  0  0
   22.2276   26.4188   42.8876 H   0  0  0  0  0  0  0  0  0  0  0  0
   23.0259   26.0540   40.6287 H   0  0  0  0  0  0  0  0  0  0  0  0
   26.9307   25.5939   42.0999 H   0  0  0  0  0  0  0  0  0  0  0  0
   26.0487   24.8382   39.6886 H   0  0  0  0  0  0  0  0  0  0  0  0
   27.2423   27.8221   39.1230 H   0  0  0  0  0  0  0  0  0  0  0  0
   28.9132   28.4233   37.4630 H   0  0  0  0  0  0  0  0  0  0  0  0
   26.8315   26.2045   34.5513 H   0  0  0  0  0  0  0  0  0  0  0  0
   25.1691   25.5988   36.2181 H   0  0  0  0  0  0  0  0  0  0  0  0
   29.9659   27.8660   35.3820 H   0  0  0  0  0  0  0  0  0  0  0  0
   28.7020   28.6178   34.3860 H   0  0  0  0  0  0  0  0  0  0  0  0
   28.4627   24.9723   34.6938 H   0  0  0  0  0  0  0  0  0  0  0  0
   30.1287   25.3105   35.0823 H   0  0  0  0  0  0  0  0  0  0  0  0
   29.8637   23.4466   33.4336 H   0  0  0  0  0  0  0  0  0  0  0  0
   30.8171   24.7545   32.8140 H   0  0  0  0  0  0  0  0  0  0  0  0
   29.0873   22.6687   31.5101 H   0  0  0  0  0  0  0  0  0  0  0  0
   29.7138   23.8255   30.3600 H   0  0  0  0  0  0  0  0  0  0  0  0
   27.9889   23.5932   30.5141 H   0  0  0  0  0  0  0  0  0  0  0  0
   27.8200   25.9963   30.8746 H   0  0  0  0  0  0  0  0  0  0  0  0
   29.5247   26.3494   31.0602 H   0  0  0  0  0  0  0  0  0  0  0  0
   28.4388   27.9593   32.3814 H   0  0  0  0  0  0  0  0  0  0  0  0
   27.3186   26.7687   33.0309 H   0  0  0  0  0  0  0  0  0  0  0  0
   24.3889   26.4063   45.8925 H   0  0  0  0  0  0  0  0  0  0  0  0
   22.8643   25.6933   45.4233 H   0  0  0  0  0  0  0  0  0  0  0  0
   23.1152   27.4135   45.2473 H   0  0  0  0  0  0  0  0  0  0  0  0
  1  2  2  0
  2  3  1  0
  3  4  2  0
  4  5  1  0
  1  6  1  0
  5  6  2  0
  3  7  1  0
  7  8  2  0
  8  9  1  0
  9 10  2  0
 10 11  1  0
  7 12  1  0
 11 12  2  0
 11 13  1  0
 13 14  1  0
 14 15  2  0
 15 16  1  0
 16 17  2  0
 17 18  1  0
 14 19  1  0
 18 19  2  0
 18 20  1  0
 20 21  1  0
 21 22  1  0
 22 23  2  0
 23 24  1  0
 24 25  2  0
 25 26  1  0
 22 27  1  0
 26 27  2  0
 25 28  1  0
 28 29  1  0
 29 30  1  0
 30 31  1  0
 31 32  1  0
 32 33  1  0
 32 34  1  0
 29 35  1  0
 34 35  1  0
 21 36  2  0
 15 37  1  0
  1 38  1  0
  2 39  1  0
  4 40  1  0
  6 41  1  0
  8 42  1  0
  9 43  1  0
 13 44  1  0
 16 45  1  0
 17 46  1  0
 19 47  1  0
 20 48  1  0
 23 49  1  0
 24 50  1  0
 26 51  1  0
 27 52  1  0
 28 53  1  0
 28 54  1  0
 30 55  1  0
 30 56  1  0
 31 57  1  0
 31 58  1  0
 33 59  1  0
 33 60  1  0
 33 61  1  0
 34 62  1  0
 34 63  1  0
 35 64  1  0
 35 65  1  0
 37 66  1  0
 37 67  1  0
 37 68  1  0
M  END
