7O0N_CDP_B_304
     RDKit          3D

 40 41  0  0  0  0  0  0  0  0999 V2000
   -3.3753   -0.7710    0.7763 O   0  0  0  0  0  0  0  0  0  0  0  0
   -1.8542   -1.2516    0.2073 P   0  0  2  0  0  5  0  0  0  0  0  0
   -1.6969   -0.7669   -1.2156 O   0  0  0  0  0  0  0  0  0  0  0  0
   -1.7353   -2.9423    0.2137 O   0  0  0  0  0  0  0  0  0  0  0  0
   -0.6278   -0.5447    1.1525 O   0  0  0  0  0  0  0  0  0  0  0  0
   -0.1264   -1.6924    2.3052 P   0  0  1  0  0  5  0  0  0  0  0  0
   -0.1006   -1.0123    3.6559 O   0  0  0  0  0  0  0  0  0  0  0  0
   -1.2190   -2.9874    2.3742 O   0  0  0  0  0  0  0  0  0  0  0  0
    1.4413   -2.2458    1.9170 O   0  0  0  0  0  0  0  0  0  0  0  0
    1.4802   -2.5694    0.5465 C   0  0  0  0  0  0  0  0  0  0  0  0
    0.9415   -1.3908   -0.2695 C   0  0  2  0  0  0  0  0  0  0  0  0
    1.9414   -0.4106   -0.4027 O   0  0  0  0  0  0  0  0  0  0  0  0
   -0.2652   -0.7319    0.3871 C   0  0  2  0  0  0  0  0  0  0  0  0
   -1.4567   -1.3555   -0.0195 O   0  0  0  0  0  0  0  0  0  0  0  0
   -0.1693    0.7051   -0.0855 C   0  0  2  0  0  0  0  0  0  0  0  0
   -1.0776    0.9566   -1.1284 O   0  0  0  0  0  0  0  0  0  0  0  0
    1.2771    0.8204   -0.5935 C   0  0  1  0  0  0  0  0  0  0  0  0
    1.9977    1.9062    0.1030 N   0  0  0  0  0  4  0  0  0  0  0  0
    2.6479    1.6942    1.2959 C   0  0  0  0  0  0  0  0  0  0  0  0
    2.6612    0.5537    1.8320 O   0  0  0  0  0  0  0  0  0  0  0  0
    3.2838    2.7196    1.9207 N   0  0  0  0  0  0  0  0  0  0  0  0
    3.2899    3.9725    1.4008 C   0  0  0  0  0  0  0  0  0  0  0  0
    3.9702    5.0239    2.0866 N   0  0  0  0  0  0  0  0  0  0  0  0
    2.6238    4.2213    0.2029 C   0  0  0  0  0  0  0  0  0  0  0  0
    1.9737    3.1653   -0.4320 C   0  0  0  0  0  0  0  0  0  0  0  0
   -4.0242   -1.2448    0.1972 H   0  0  0  0  0  0  0  0  0  0  0  0
   -2.4308   -3.2481    0.8490 H   0  0  0  0  0  0  0  0  0  0  0  0
   -0.8652   -3.6606    1.7401 H   0  0  0  0  0  0  0  0  0  0  0  0
    2.5221   -2.7879    0.2187 H   0  0  0  0  0  0  0  0  0  0  0  0
    0.8379   -3.4527    0.3301 H   0  0  0  0  0  0  0  0  0  0  0  0
    0.6688   -1.7567   -1.2869 H   0  0  0  0  0  0  0  0  0  0  0  0
   -0.1674   -0.7654    1.4986 H   0  0  0  0  0  0  0  0  0  0  0  0
   -2.1724   -1.0045    0.5719 H   0  0  0  0  0  0  0  0  0  0  0  0
   -0.3735    1.3922    0.7694 H   0  0  0  0  0  0  0  0  0  0  0  0
   -1.0816    1.9398   -1.2657 H   0  0  0  0  0  0  0  0  0  0  0  0
    1.2702    1.0121   -1.6921 H   0  0  0  0  0  0  0  0  0  0  0  0
    3.9835    5.9951    1.7028 H   0  0  0  0  0  0  0  0  0  0  0  0
    4.4653    4.8310    2.9855 H   0  0  0  0  0  0  0  0  0  0  0  0
    2.6053    5.2137   -0.2296 H   0  0  0  0  0  0  0  0  0  0  0  0
    1.4484    3.3641   -1.3587 H   0  0  0  0  0  0  0  0  0  0  0  0
  2  1  1  6
  2  3  2  0
  2  4  1  0
  2  5  1  0
  6  5  1  1
  6  7  2  0
  6  8  1  0
  6  9  1  0
  9 10  1  0
 11 10  1  0
 11 12  1  0
 11 13  1  0
 13 14  1  0
 13 15  1  0
 15 16  1  0
 12 17  1  0
 15 17  1  0
 17 18  1  0
 18 19  4  0
 19 20  2  0
 19 21  4  0
 21 22  4  0
 22 23  1  0
 22 24  4  0
 18 25  4  0
 24 25  4  0
  1 26  1  0
  4 27  1  0
  8 28  1  0
 10 29  1  0
 10 30  1  0
 11 31  1  1
 13 32  1  6
 14 33  1  0
 15 34  1  6
 16 35  1  0
 17 36  1  1
 23 37  1  0
 23 38  1  0
 24 39  1  0
 25 40  1  0
M  CHG  1  18   1
M  END
