1LRH_NLA_D_8190
     RDKit          3D

 24 25  0  0  0  0  0  0  0  0999 V2000
   36.2186   52.1724   57.5739 C   0  0  0  0  0  0  0  0  0  0  0  0
   37.1259   51.6827   56.5929 C   0  0  0  0  0  0  0  0  0  0  0  0
   36.6205   50.9861   55.4804 C   0  0  0  0  0  0  0  0  0  0  0  0
   35.2497   50.7936   55.3174 C   0  0  0  0  0  0  0  0  0  0  0  0
   34.3536   51.2836   56.2638 C   0  0  0  0  0  0  0  0  0  0  0  0
   34.8225   51.9687   57.3925 C   0  0  0  0  0  0  0  0  0  0  0  0
   33.9110   52.4491   58.3461 C   0  0  0  0  0  0  0  0  0  0  0  0
   34.3671   53.1241   59.4781 C   0  0  0  0  0  0  0  0  0  0  0  0
   35.7332   53.3246   59.6703 C   0  0  0  0  0  0  0  0  0  0  0  0
   36.6547   52.8549   58.7311 C   0  0  0  0  0  0  0  0  0  0  0  0
   38.6260   51.8432   56.7119 C   0  0  1  0  0  0  0  0  0  0  0  0
   39.2181   50.6966   57.4698 C   0  0  0  0  0  0  0  0  0  0  0  0
   40.1385   50.8976   58.3066 O   0  0  0  0  0  0  0  0  0  0  0  0
   38.7522   49.4046   57.2465 O   0  0  0  0  0  0  0  0  0  0  0  0
   37.2929   50.5878   54.7304 H   0  0  0  0  0  0  0  0  0  0  0  0
   34.8799   50.2590   54.4518 H   0  0  0  0  0  0  0  0  0  0  0  0
   33.2923   51.1220   56.1162 H   0  0  0  0  0  0  0  0  0  0  0  0
   32.8454   52.3002   58.2167 H   0  0  0  0  0  0  0  0  0  0  0  0
   33.6593   53.4910   60.2103 H   0  0  0  0  0  0  0  0  0  0  0  0
   36.0812   53.8461   60.5527 H   0  0  0  0  0  0  0  0  0  0  0  0
   37.7017   53.0305   58.9285 H   0  0  0  0  0  0  0  0  0  0  0  0
   39.0981   51.8754   55.7061 H   0  0  0  0  0  0  0  0  0  0  0  0
   38.8794   52.8117   57.1927 H   0  0  0  0  0  0  0  0  0  0  0  0
   39.3678   48.6854   56.8861 H   0  0  0  0  0  0  0  0  0  0  0  0
  1  2  2  0
  2  3  1  0
  3  4  2  0
  4  5  1  0
  1  6  1  0
  5  6  2  0
  6  7  1  0
  7  8  2  0
  8  9  1  0
  1 10  1  0
  9 10  2  0
  2 11  1  0
 11 12  1  0
 12 13  2  0
 12 14  1  0
  3 15  1  0
  4 16  1  0
  5 17  1  0
  7 18  1  0
  8 19  1  0
  9 20  1  0
 10 21  1  0
 11 22  1  6
 11 23  1  0
 14 24  1  0
M  END
