7PRI_7TI_BBB_406
     RDKit          3D

 28 28  0  0  0  0  0  0  0  0999 V2000
   40.8537  -24.5287   -8.1492 Cl  0  0  0  0  0  0  0  0  0  0  0  0
   39.6431  -25.5944  -10.0438 O   0  0  0  0  0  0  0  0  0  0  0  0
   39.1027  -24.2875  -10.5512 S   0  0  2  0  0  6  0  0  0  0  0  0
   38.3358  -23.6054   -9.4535 O   0  0  0  0  0  0  0  0  0  0  0  0
   38.0034  -24.6014  -11.8513 N   0  0  0  0  0  0  0  0  0  0  0  0
   40.4523  -23.2576  -11.0715 C   0  0  0  0  0  0  0  0  0  0  0  0
   40.6614  -23.0370  -12.4410 C   0  0  0  0  0  0  0  0  0  0  0  0
   41.7062  -22.2181  -12.8966 C   0  0  0  0  0  0  0  0  0  0  0  0
   41.9039  -21.9724  -14.6387 S   0  0  1  0  0  6  0  0  0  0  0  0
   40.9729  -22.8704  -15.4054 O   0  0  0  0  0  0  0  0  0  0  0  0
   41.5446  -20.3280  -15.0349 N   0  0  0  0  0  0  0  0  0  0  0  0
   43.3174  -22.2950  -15.0344 O   0  0  0  0  0  0  0  0  0  0  0  0
   42.5691  -21.6092  -11.9580 C   0  0  0  0  0  0  0  0  0  0  0  0
   43.6526  -20.7598  -12.3620 N   0  0  0  0  0  0  0  0  0  0  0  0
   42.3707  -21.8414  -10.5910 C   0  0  0  0  0  0  0  0  0  0  0  0
   41.3263  -22.6584  -10.1384 C   0  0  0  0  0  0  0  0  0  0  0  0
   41.1940  -22.8864   -8.6857 C   0  0  0  0  0  0  0  0  0  0  0  0
   41.3665  -21.8909   -7.8008 C   0  0  0  0  0  0  0  0  0  0  0  0
   41.7024  -20.2425   -8.3199 Cl  0  0  0  0  0  0  0  0  0  0  0  0
   41.2336  -22.1714   -6.0704 Cl  0  0  0  0  0  0  0  0  0  0  0  0
   37.1132  -24.0967  -11.6428 H   0  0  0  0  0  0  0  0  0  0  0  0
   37.7968  -25.6254  -11.8485 H   0  0  0  0  0  0  0  0  0  0  0  0
   40.0084  -23.5058  -13.1615 H   0  0  0  0  0  0  0  0  0  0  0  0
   41.5613  -20.2533  -16.0766 H   0  0  0  0  0  0  0  0  0  0  0  0
   40.5602  -20.1498  -14.7344 H   0  0  0  0  0  0  0  0  0  0  0  0
   44.0353  -20.7578  -13.3311 H   0  0  0  0  0  0  0  0  0  0  0  0
   44.0940  -20.1055  -11.6780 H   0  0  0  0  0  0  0  0  0  0  0  0
   43.0394  -21.3841   -9.8706 H   0  0  0  0  0  0  0  0  0  0  0  0
  2  3  2  0
  3  4  2  0
  3  5  1  6
  3  6  1  0
  6  7  2  0
  7  8  1  0
  8  9  1  0
  9 10  2  0
  9 11  1  1
  9 12  2  0
  8 13  2  0
 13 14  1  0
 13 15  1  0
 15 16  2  0
  6 16  1  0
  1 17  1  0
 16 17  1  0
 17 18  2  0
 18 19  1  0
 18 20  1  0
  5 21  1  0
  5 22  1  0
  7 23  1  0
 11 24  1  0
 11 25  1  0
 14 26  1  0
 14 27  1  0
 15 28  1  0
M  END
