7RNI_60I_B_502
     RDKit          3D

 31 34  0  0  0  0  0  0  0  0999 V2000
  182.5336  134.6069   35.6257 N   0  0  0  0  0  0  0  0  0  0  0  0
  181.1012  131.2794   35.6980 C   0  0  0  0  0  0  0  0  0  0  0  0
  185.3971  131.4928   35.0824 O   0  0  0  0  0  0  0  0  0  0  0  0
  181.9095  132.5007   35.5970 C   0  0  0  0  0  0  0  0  0  0  0  0
  183.9453  128.9385   34.8683 C   0  0  0  0  0  0  0  0  0  0  0  0
  185.0677  128.0353   31.4607 C   0  0  0  0  0  0  0  0  0  0  0  0
  185.0161  126.5764   31.3567 C   0  0  0  0  0  0  0  0  0  0  0  0
  185.8231  124.5613   31.7068 C   0  0  0  0  0  0  0  0  0  0  0  0
  186.5424  123.4461   32.1064 C   0  0  0  0  0  0  0  0  0  0  0  0
  186.1974  122.2016   31.6422 C   0  0  0  0  0  0  0  0  0  0  0  0
  185.1294  122.0889   30.7775 C   0  0  0  0  0  0  0  0  0  0  0  0
  184.4167  123.2274   30.3875 C   0  0  0  0  0  0  0  0  0  0  0  0
  184.7523  124.4811   30.8465 C   0  0  0  0  0  0  0  0  0  0  0  0
  183.1486  125.9473   29.7527 C   0  0  0  0  0  0  0  0  0  0  0  0
  183.2435  132.5347   35.2519 C   0  0  0  0  0  0  0  0  0  0  0  0
  181.7621  125.8994   30.2454 C   0  0  2  0  0  0  0  0  0  0  0  0
  181.6132  125.3298   31.6635 C   0  0  0  0  0  0  0  0  0  0  0  0
  180.9473  124.8657   29.3958 C   0  0  0  0  0  0  0  0  0  0  0  0
  180.9507  127.1569   30.1825 C   0  0  0  0  0  0  0  0  0  0  0  0
  183.6029  133.8848   35.2803 C   0  0  0  0  0  0  0  0  0  0  0  0
  182.4486  136.0398   35.7758 C   0  0  0  0  0  0  0  0  0  0  0  0
  184.9540  134.4628   34.9803 C   0  0  0  0  0  0  0  0  0  0  0  0
  184.1581  131.4541   34.9122 C   0  0  0  0  0  0  0  0  0  0  0  0
  182.6782  130.2784   33.2334 C   0  0  0  0  0  0  0  0  0  0  0  0
  183.1062  129.1999   32.2552 C   0  0  0  0  0  0  0  0  0  0  0  0
  184.6031  128.1298   33.8011 C   0  0  0  0  0  0  0  0  0  0  0  0
  181.5150  133.7744   35.8159 N   0  0  0  0  0  0  0  0  0  0  0  0
  183.6005  130.2622   34.3434 N   0  0  0  0  0  0  0  0  0  0  0  0
  184.3956  128.7049   32.4804 N   0  0  0  0  0  0  0  0  0  0  0  0
  185.9770  125.8258   32.0104 N   0  0  0  0  0  0  0  0  0  0  0  0
  184.2458  125.7445   30.6281 N   0  0  0  0  0  0  0  0  0  0  0  0
  2  4  1  1
  6  7  1  0
  8  9  2  0
  9 10  1  0
 10 11  2  0
 11 12  1  0
  8 13  1  0
 12 13  2  0
  4 15  1  0
 14 16  1  0
 16 17  1  1
 18 16  1  1
 19 16  1  6
  1 20  1  0
 15 20  2  0
 21  1  1  1
 22 20  1  1
  3 23  2  0
 15 23  1  0
 24 25  1  0
  5 26  1  0
  1 27  1  0
  4 27  2  0
 23 28  1  0
 24 28  1  1
  5 28  1  6
  6 29  1  6
 25 29  1  1
 26 29  1  6
  8 30  1  0
  7 30  2  0
  7 31  1  0
 13 31  1  0
 14 31  1  1
M  END
$$$$
