7N4N_0BK_A_401
     RDKit          3D

 55 57  0  0  0  0  0  0  0  0999 V2000
    0.8670   -0.3407   -0.5631 C   0  0  0  0  0  0  0  0  0  0  0  0
    1.2679   -0.6644    1.8589 C   0  0  0  0  0  0  0  0  0  0  0  0
    1.3913    0.6111    2.4121 C   0  0  0  0  0  0  0  0  0  0  0  0
    2.1807    0.7771    3.5601 C   0  0  0  0  0  0  0  0  0  0  0  0
    2.6661   -1.5430    3.5532 C   0  0  0  0  0  0  0  0  0  0  0  0
    0.7145    3.1863    2.5731 C   0  0  0  0  0  0  0  0  0  0  0  0
   -1.1882    3.0927    0.5096 C   0  0  0  0  0  0  0  0  0  0  0  0
   -0.4313    1.9297    0.7963 C   0  0  0  0  0  0  0  0  0  0  0  0
    0.5048    1.9950    1.8567 C   0  0  0  0  0  0  0  0  0  0  0  0
   -0.6540    0.6221    0.0107 C   0  0  2  0  0  0  0  0  0  0  0  0
   -0.1638   -0.4681   -2.2270 C   0  0  0  0  0  0  0  0  0  0  0  0
   -1.6475   -0.3634   -2.6655 C   0  0  2  0  0  0  0  0  0  0  0  0
   -0.9026   -2.6819   -4.3656 C   0  0  0  0  0  0  0  0  0  0  0  0
    0.4883   -0.8444    0.7124 O   0  0  0  0  0  0  0  0  0  0  0  0
    2.7973   -0.3080    4.1026 N   0  0  0  0  0  0  0  0  0  0  0  0
    1.9072   -1.7156    2.4409 N   0  0  0  0  0  0  0  0  0  0  0  0
    2.3460    2.1057    4.1889 C   0  0  0  0  0  0  0  0  0  0  0  0
    3.0694    2.2253    5.2154 O   0  0  0  0  0  0  0  0  0  0  0  0
    1.6584    3.2513    3.6563 N   0  0  0  0  0  0  0  0  0  0  0  0
   -0.0545    4.3131    2.2676 C   0  0  0  0  0  0  0  0  0  0  0  0
   -0.9953    4.2662    1.2419 C   0  0  0  0  0  0  0  0  0  0  0  0
   -2.1326    3.1008   -0.4631 F   0  0  0  0  0  0  0  0  0  0  0  0
   -0.3312   -0.5973    0.9083 C   0  0  0  0  0  0  0  0  0  0  0  0
    0.7679   -1.2822    0.4175 F   0  0  0  0  0  0  0  0  0  0  0  0
    0.2370    0.6397   -1.2540 C   0  0  0  0  0  0  0  0  0  0  0  0
   -1.7863    0.6912   -3.7825 C   0  0  0  0  0  0  0  0  0  0  0  0
   -2.5492    0.0386   -1.4972 C   0  0  0  0  0  0  0  0  0  0  0  0
   -3.9716    0.0471   -1.6582 N   0  0  0  0  0  0  0  0  0  0  0  0
   -2.0664    0.5027   -0.3788 N   0  0  0  0  0  0  0  0  0  0  0  0
   -2.1557   -1.9794   -3.3089 S   0  0  2  0  0  6  0  0  0  0  0  0
   -3.4205   -1.8586   -4.1124 O   0  0  0  0  0  0  0  0  0  0  0  0
   -2.3951   -2.9198   -2.1608 O   0  0  0  0  0  0  0  0  0  0  0  0
    1.8327   -0.7901   -0.8777 H   0  0  0  0  0  0  0  0  0  0  0  0
    0.9629    0.7649   -0.5225 H   0  0  0  0  0  0  0  0  0  0  0  0
    0.0878   -0.6074   -1.3061 H   0  0  0  0  0  0  0  0  0  0  0  0
    0.8834    1.4493    1.9517 H   0  0  0  0  0  0  0  0  0  0  0  0
    3.1666   -2.3898    4.0022 H   0  0  0  0  0  0  0  0  0  0  0  0
    1.0584    1.1167    2.1551 H   0  0  0  0  0  0  0  0  0  0  0  0
    0.5078   -0.4260   -3.1126 H   0  0  0  0  0  0  0  0  0  0  0  0
    0.0282   -1.4493   -1.7427 H   0  0  0  0  0  0  0  0  0  0  0  0
    0.0047   -2.9173   -3.7730 H   0  0  0  0  0  0  0  0  0  0  0  0
   -1.2872   -3.6169   -4.8225 H   0  0  0  0  0  0  0  0  0  0  0  0
   -0.6432   -1.9639   -5.1702 H   0  0  0  0  0  0  0  0  0  0  0  0
    1.9286    4.1982    4.0078 H   0  0  0  0  0  0  0  0  0  0  0  0
    0.0800    5.2323    2.8240 H   0  0  0  0  0  0  0  0  0  0  0  0
   -1.5838    5.1461    1.0152 H   0  0  0  0  0  0  0  0  0  0  0  0
   -1.1868   -1.2983    0.9814 H   0  0  0  0  0  0  0  0  0  0  0  0
   -0.0890   -0.2678    1.9406 H   0  0  0  0  0  0  0  0  0  0  0  0
    0.1498    1.6232   -1.7652 H   0  0  0  0  0  0  0  0  0  0  0  0
    1.3069    0.5051   -0.9889 H   0  0  0  0  0  0  0  0  0  0  0  0
   -1.5217    1.7027   -3.4094 H   0  0  0  0  0  0  0  0  0  0  0  0
   -2.8286    0.7347   -4.1616 H   0  0  0  0  0  0  0  0  0  0  0  0
   -1.1229    0.4501   -4.6395 H   0  0  0  0  0  0  0  0  0  0  0  0
   -4.4254   -0.1682   -2.5710 H   0  0  0  0  0  0  0  0  0  0  0  0
   -4.5867    0.3279   -0.8623 H   0  0  0  0  0  0  0  0  0  0  0  0
  2  3  4  0
  3  4  4  0
  7  8  4  0
  8  9  4  0
  6  9  4  0
  8 10  1  0
 11 12  1  0
  2 14  1  0
  1 14  1  0
  4 15  4  0
  5 15  4  0
  2 16  4  0
  5 16  4  0
  4 17  1  0
 17 18  2  0
  6 19  1  0
 17 19  1  0
  6 20  4  0
  7 21  4  0
 20 21  4  0
  7 22  1  0
 10 23  1  1
 23 24  1  0
 11 25  1  0
 10 25  1  0
 12 26  1  6
 12 27  1  0
 27 28  1  0
 27 29  2  0
 10 29  1  0
 30 13  1  6
 12 30  1  0
 30 31  2  0
 30 32  2  0
  1 33  1  0
  1 34  1  0
  1 35  1  0
  3 36  1  0
  5 37  1  0
  9 38  1  0
 11 39  1  0
 11 40  1  0
 13 41  1  0
 13 42  1  0
 13 43  1  0
 19 44  1  0
 20 45  1  0
 21 46  1  0
 23 47  1  0
 23 48  1  0
 25 49  1  0
 25 50  1  0
 26 51  1  0
 26 52  1  0
 26 53  1  0
 28 54  1  0
 28 55  1  0
M  END
