1V4S_MRK_A_501
     RDKit          3D

 23 25  0  0  0  0  0  0  0  0999 V2000
   24.7910   -3.0327   80.0450 S   0  0  0  0  0  0  0  0  0  0  0  0
   25.2693   -4.6545   79.3495 C   0  0  0  0  0  0  0  0  0  0  0  0
   26.2263   -5.0766   80.2067 C   0  0  0  0  0  0  0  0  0  0  0  0
   26.4942   -4.2527   81.1971 N   0  0  0  0  0  0  0  0  0  0  0  0
   26.0496   -3.2331   81.4549 C   0  0  0  0  0  0  0  0  0  0  0  0
   26.1107   -2.1260   82.4131 N   0  0  0  0  0  0  0  0  0  0  0  0
   25.3793   -0.9440   82.2262 C   0  0  0  0  0  0  0  0  0  0  0  0
   24.5317   -0.7818   81.2995 O   0  0  0  0  0  0  0  0  0  0  0  0
   24.5338    1.1141   83.2847 C   0  0  0  0  0  0  0  0  0  0  0  0
   25.5670    0.1938   83.1216 C   0  0  0  0  0  0  0  0  0  0  0  0
   26.7259    0.4206   83.8302 C   0  0  0  0  0  0  0  0  0  0  0  0
   26.8943    1.5044   84.6773 C   0  0  0  0  0  0  0  0  0  0  0  0
   25.8672    2.4187   84.8391 C   0  0  0  0  0  0  0  0  0  0  0  0
   26.0364    3.4768   85.6684 F   0  0  0  0  0  0  0  0  0  0  0  0
   24.6877    2.2107   84.1340 C   0  0  0  0  0  0  0  0  0  0  0  0
   28.4441    1.7082   85.5540 S   0  0  0  0  0  0  0  0  0  0  0  0
   31.0728    1.5512   84.5901 N   0  0  0  0  0  0  0  0  0  0  0  0
   29.7586    1.5663   84.3517 C   0  0  0  0  0  0  0  0  0  0  0  0
   29.5616    1.4550   83.0293 N   0  0  0  0  0  0  0  0  0  0  0  0
   30.7703    1.3661   82.4004 C   0  0  0  0  0  0  0  0  0  0  0  0
   31.7241    1.4298   83.4197 C   0  0  0  0  0  0  0  0  0  0  0  0
   31.7425    1.6450   85.8611 C   0  0  0  0  0  0  0  0  0  0  0  0
   23.2916    0.9665   82.5928 N   0  0  0  0  0  0  0  0  0  0  0  0
  1  2  1  0
  2  3  2  0
  3  4  1  0
  1  5  1  0
  4  5  2  0
  5  6  1  0
  6  7  1  0
  7  8  2  0
  7 10  1  0
  9 10  2  0
 10 11  1  0
 11 12  2  0
 12 13  1  0
 13 14  1  0
  9 15  1  0
 13 15  2  0
 12 16  1  0
 16 18  1  0
 17 18  1  0
 18 19  2  0
 19 20  1  0
 17 21  1  0
 20 21  2  0
 22 17  1  6
  9 23  1  0
M  END
$$$$
