8D5D_5DK_A_505
     RDKit          3D

 27 27  0  0  0  0  0  0  0  0999 V2000
    1.7878   -6.7851   38.9719 C   0  0  0  0  0  0  0  0  0  0  0  0
    2.7517   -7.7454   38.7020 C   0  0  0  0  0  0  0  0  0  0  0  0
    2.9140   -8.1255   37.3875 C   0  0  0  0  0  0  0  0  0  0  0  0
    2.1304   -7.5524   36.4015 C   0  0  0  0  0  0  0  0  0  0  0  0
    1.1788   -6.5955   36.7187 C   0  0  0  0  0  0  0  0  0  0  0  0
    5.9689  -11.0249   36.3897 C   0  0  0  0  0  0  0  0  0  0  0  0
    3.5355   -8.3171   39.6978 O   0  0  0  0  0  0  0  0  0  0  0  0
    3.8224   -9.3755   32.7708 O   0  0  0  0  0  0  0  0  0  0  0  0
    1.9251  -11.3871   32.9069 O   0  0  0  0  0  0  0  0  0  0  0  0
    1.3375   -8.9336   32.1823 O   0  0  0  0  0  0  0  0  0  0  0  0
    1.8859   -9.2874   34.7603 O   0  0  0  0  0  0  0  0  0  0  0  0
    4.6418   -9.6207   37.8976 N   0  0  0  0  0  0  0  0  0  0  0  0
    2.1975   -9.7284   33.1376 P   0  0  2  0  0  5  0  0  0  0  0  0
    1.5852   -6.3493   40.3859 C   0  0  0  0  0  0  0  0  0  0  0  0
    3.9081   -9.1388   36.9814 C   0  0  0  0  0  0  0  0  0  0  0  0
    2.3251   -7.9832   34.9819 C   0  0  0  0  0  0  0  0  0  0  0  0
    1.0308   -6.2336   38.0059 N   0  0  0  0  0  0  0  0  0  0  0  0
    5.5758  -10.6929   37.8144 C   0  0  1  0  0  0  0  0  0  0  0  0
    5.1565  -11.8983   38.5660 C   0  0  0  0  0  0  0  0  0  0  0  0
    3.8396  -12.3296   38.5028 O   0  0  0  0  0  0  0  0  0  0  0  0
    7.3630  -11.6237   36.3041 C   0  0  0  0  0  0  0  0  0  0  0  0
    7.7424  -11.8932   34.8509 C   0  0  0  0  0  0  0  0  0  0  0  0
    9.1316  -12.2859   34.7209 N   0  0  0  0  0  0  0  0  0  0  0  0
    9.4334  -13.6845   34.8616 C   0  0  0  0  0  0  0  0  0  0  0  0
    9.0181  -14.3587   36.0565 N   0  0  0  0  0  0  0  0  0  0  0  0
   10.0674  -14.2932   33.9120 N   0  0  0  0  0  0  0  0  0  0  0  0
    5.9553  -12.5770   39.2836 O   0  0  0  0  0  0  0  0  0  0  0  0
  1  2  2  0
  2  3  1  0
  3  4  2  0
  4  5  1  0
  2  7  1  0
 10 13  2  0
 13  8  1  6
 11 13  1  0
  9 13  1  0
 14  1  1  1
 12 15  2  0
  3 15  1  0
 16 11  1  1
  4 16  1  0
  1 17  1  0
  5 17  2  0
  6 18  1  1
 18 12  1  6
 18 19  1  0
 19 20  1  0
  6 21  1  0
 21 22  1  1
 22 23  1  6
 23 24  1  0
 24 25  1  0
 24 26  2  0
 19 27  2  0
M  END
$$$$
