
     RDKit          3D

 16 17  0  0  0  0  0  0  0  0999 V2000
   84.1025   13.4272   34.5353 C   0  0  1  0  0  0  0  0  0  0  0  0
   84.2609   12.7107   35.8975 C   0  0  2  0  0  0  0  0  0  0  0  0
   83.8216   13.5703   37.1011 C   0  0  2  0  0  0  0  0  0  0  0  0
   83.4793   12.6781   38.2973 C   0  0  0  0  0  0  0  0  0  0  0  0
   82.6648   14.4813   36.6729 C   0  0  2  0  0  0  0  0  0  0  0  0
   83.1274   15.5005   35.6091 C   0  0  1  0  0  0  0  0  0  0  0  0
   84.2292   14.9484   34.6868 C   0  0  2  0  0  0  0  0  0  0  0  0
   85.1710   12.8902   33.6448 N   0  0  0  0  0  0  0  0  0  0  0  0
   87.3914   13.4948   34.6523 O   0  0  0  0  0  0  0  0  0  0  0  0
   86.4473   12.4043   34.6339 S   0  0  0  0  0  6  0  0  0  0  0  0
   86.8060   11.0541   34.2824 O   0  0  0  0  0  0  0  0  0  0  0  0
   85.6519   12.3993   36.0556 O   0  0  0  0  0  0  0  0  0  0  0  0
   82.1787   12.1295   38.1315 O   0  0  0  0  0  0  0  0  0  0  0  0
   82.1236   15.2113   37.7736 O   0  0  0  0  0  0  0  0  0  0  0  0
   81.9928   15.8714   34.8039 O   0  0  0  0  0  0  0  0  0  0  0  0
   84.1682   15.5684   33.3965 O   0  0  0  0  0  0  0  0  0  0  0  0
  1  2  1  0
  2  3  1  0
  3  4  1  1
  3  5  1  0
  5  6  1  0
  1  7  1  0
  6  7  1  0
  1  8  1  6
  9 10  2  0
  8 10  1  0
 10 11  2  0
 10 12  1  0
  2 12  1  1
  4 13  1  0
  5 14  1  1
  6 15  1  6
  7 16  1  6
M  END
