
     RDKit          3D

 18 20  0  0  0  0  0  0  0  0999 V2000
   17.5084   54.5887   27.2244 N   0  0  0  0  0  0  0  0  0  0  0  0
   17.8223   53.8143   28.2858 C   0  0  0  0  0  0  0  0  0  0  0  0
   18.3853   54.1822   29.4573 N   0  0  0  0  0  0  0  0  0  0  0  0
   18.6147   55.5062   29.4731 C   0  0  0  0  0  0  0  0  0  0  0  0
   19.1809   56.2406   30.4797 N   0  0  0  0  0  0  0  0  0  0  0  0
   19.2313   57.5425   30.0629 C   0  0  0  0  0  0  0  0  0  0  0  0
   18.7503   57.6872   28.8444 N   0  0  0  0  0  0  0  0  0  0  0  0
   18.3455   56.4220   28.4702 C   0  0  0  0  0  0  0  0  0  0  0  0
   17.7525   55.9175   27.3012 C   0  0  0  0  0  0  0  0  0  0  0  0
   17.4225   56.7111   26.2114 N   0  0  0  0  0  0  0  0  0  0  0  0
   19.6240   55.6851   31.7436 C   0  0  1  0  0  0  0  0  0  0  0  0
   20.8588   56.3997   32.3139 C   0  0  1  0  0  0  0  0  0  0  0  0
   20.2416   57.3323   33.3427 C   0  0  1  0  0  0  0  0  0  0  0  0
   19.0855   56.4889   33.8644 C   0  0  1  0  0  0  0  0  0  0  0  0
   17.9873   57.3131   34.5114 C   0  0  0  0  0  0  0  0  0  0  0  0
   18.5596   55.7966   32.7185 O   0  0  0  0  0  0  0  0  0  0  0  0
   21.7337   55.4812   33.0001 O   0  0  0  0  0  0  0  0  0  0  0  0
   21.1646   57.6949   34.3586 O   0  0  0  0  0  0  0  0  0  0  0  0
  1  2  4  0
  2  3  4  0
  3  4  4  0
  4  5  4  0
  5  6  4  0
  6  7  4  0
  4  8  4  0
  7  8  4  0
  1  9  4  0
  8  9  4  0
  9 10  1  0
 11  5  1  6
 11 12  1  0
 12 13  1  0
 13 14  1  0
 14 15  1  6
 11 16  1  0
 14 16  1  0
 12 17  1  1
 13 18  1  1
M  END
