7PJQ_OWH_B_603
     RDKit          3D

 10 10  0  0  0  0  0  0  0  0999 V2000
   30.3223   34.3446   11.3848 C   0  0  0  0  0  0  0  0  0  0  0  0
   31.6433   36.3525   10.6588 C   0  0  0  0  0  0  0  0  0  0  0  0
   31.6961   37.6906   10.0792 C   0  0  0  0  0  0  0  0  0  0  0  0
   32.8719   38.1812    9.5236 C   0  0  0  0  0  0  0  0  0  0  0  0
   31.8223   40.2185    8.9766 C   0  0  0  0  0  0  0  0  0  0  0  0
   30.6208   39.7916    9.5130 C   0  0  0  0  0  0  0  0  0  0  0  0
   30.5816   38.5126   10.0636 C   0  0  0  0  0  0  0  0  0  0  0  0
   30.4045   35.6655   10.7986 N   0  0  0  0  0  0  0  0  0  0  0  0
   32.9068   39.4083    8.9962 N   0  0  0  0  0  0  0  0  0  0  0  0
   33.0205   35.6647   11.1393 S   0  0  0  0  0  0  0  0  0  0  0  0
  2  3  1  0
  3  4  2  0
  5  6  1  0
  6  7  2  0
  3  7  1  0
  1  8  1  6
  2  8  1  0
  5  9  2  0
  4  9  1  0
  2 10  2  0
M  END
$$$$
