7LOU_IFM_B_612
     RDKit          3D

 10 10  0  0  0  0  0  0  0  0999 V2000
  -13.8816    1.4963   68.4041 O   0  0  0  0  0  0  0  0  0  0  0  0
  -13.3280    1.6654   67.0850 C   0  0  1  0  0  0  0  0  0  0  0  0
  -12.2395    2.7347   67.0858 C   0  0  2  0  0  0  0  0  0  0  0  0
  -12.7779    4.0032   67.4225 O   0  0  0  0  0  0  0  0  0  0  0  0
  -11.6170    2.8547   65.7048 C   0  0  0  0  0  0  0  0  0  0  0  0
  -11.1108    1.5606   65.2108 N   0  0  0  0  0  0  0  0  0  0  0  0
  -12.1912    0.5670   65.1381 C   0  0  0  0  0  0  0  0  0  0  0  0
  -12.7609    0.3511   66.5409 C   0  0  2  0  0  0  0  0  0  0  0  0
  -13.7662   -0.7822   66.5654 C   0  0  0  0  0  0  0  0  0  0  0  0
  -14.6324   -0.7476   65.4406 O   0  0  0  0  0  0  0  0  0  0  0  0
  2  1  1  1
  2  3  1  0
  3  4  1  6
  3  5  1  0
  5  6  1  0
  6  7  1  0
  2  8  1  0
  7  8  1  0
  8  9  1  6
  9 10  1  0
M  END
