7VKZ_NOJ_A_801
     RDKit          3D

 24 24  0  0  0  0  0  0  0  0999 V2000
    4.9638    0.6806   -2.2799 C   0  0  0  0  0  0  0  0  0  0  0  0
    5.7315   -0.6253   -2.5141 C   0  0  1  0  0  0  0  0  0  0  0  0
    6.7573   -0.4164   -3.4506 O   0  0  0  0  0  0  0  0  0  0  0  0
    6.3420   -1.1575   -1.1936 C   0  0  2  0  0  0  0  0  0  0  0  0
    6.3047   -2.5615   -1.1857 O   0  0  0  0  0  0  0  0  0  0  0  0
    5.6165   -0.6185    0.0681 C   0  0  1  0  0  0  0  0  0  0  0  0
    6.2115    0.5850    0.4870 O   0  0  0  0  0  0  0  0  0  0  0  0
    4.1057   -0.3637   -0.1781 C   0  0  1  0  0  0  0  0  0  0  0  0
    3.8264    0.4756   -1.3686 N   0  0  0  0  0  0  0  0  0  0  0  0
    3.3149   -1.6767   -0.2822 C   0  0  0  0  0  0  0  0  0  0  0  0
    2.2791   -1.5324   -1.2147 O   0  0  0  0  0  0  0  0  0  0  0  0
    5.6481    1.4623   -1.8802 H   0  0  0  0  0  0  0  0  0  0  0  0
    4.5714    1.0494   -3.2522 H   0  0  0  0  0  0  0  0  0  0  0  0
    5.0136   -1.3787   -2.9168 H   0  0  0  0  0  0  0  0  0  0  0  0
    6.3262   -0.3614   -4.3440 H   0  0  0  0  0  0  0  0  0  0  0  0
    7.4085   -0.8337   -1.1283 H   0  0  0  0  0  0  0  0  0  0  0  0
    6.9805   -2.8707   -1.8444 H   0  0  0  0  0  0  0  0  0  0  0  0
    5.7167   -1.3626    0.8943 H   0  0  0  0  0  0  0  0  0  0  0  0
    7.0590    0.3470    0.9475 H   0  0  0  0  0  0  0  0  0  0  0  0
    3.7181    0.1580    0.7285 H   0  0  0  0  0  0  0  0  0  0  0  0
    3.4963    1.4177   -1.0530 H   0  0  0  0  0  0  0  0  0  0  0  0
    2.8802   -1.9294    0.7109 H   0  0  0  0  0  0  0  0  0  0  0  0
    3.9828   -2.5073   -0.5982 H   0  0  0  0  0  0  0  0  0  0  0  0
    1.8064   -2.4045   -1.2400 H   0  0  0  0  0  0  0  0  0  0  0  0
  1  2  1  0
  2  3  1  0
  2  4  1  0
  4  5  1  0
  4  6  1  0
  6  7  1  0
  6  8  1  0
  1  9  1  0
  8  9  1  0
  8 10  1  0
 10 11  1  0
  1 12  1  0
  1 13  1  0
  2 14  1  1
  3 15  1  0
  4 16  1  6
  5 17  1  0
  6 18  1  6
  7 19  1  0
  8 20  1  6
  9 21  1  0
 10 22  1  0
 10 23  1  0
 11 24  1  0
M  END
