8EYE_X4I_A_1106
     RDKit          3D

 49 51  0  0  0  0  0  0  0  0999 V2000
   -2.1814  -10.9873   -3.9079 C   0  0  0  0  0  0  0  0  0  0  0  0
   -6.7609  -11.2677   -2.4956 N   0  0  0  0  0  0  0  0  0  0  0  0
   -8.0179  -11.7413   -1.9961 C   0  0  0  0  0  0  0  0  0  0  0  0
   -6.7838   -9.2218   -1.0735 C   0  0  0  0  0  0  0  0  0  0  0  0
   -6.3914   -6.8595   -0.7092 C   0  0  0  0  0  0  0  0  0  0  0  0
   -7.5583   -6.7796    0.0533 C   0  0  0  0  0  0  0  0  0  0  0  0
    0.7737   -8.4624   -5.8467 C   0  0  0  0  0  0  0  0  0  0  0  0
   -0.2044   -9.1641   -5.1326 C   0  0  0  0  0  0  0  0  0  0  0  0
   -1.4980   -9.3261   -5.6637 C   0  0  0  0  0  0  0  0  0  0  0  0
   -2.5410  -10.0605   -4.9016 C   0  0  0  0  0  0  0  0  0  0  0  0
   -3.9041   -9.8296   -5.1539 C   0  0  0  0  0  0  0  0  0  0  0  0
   -4.8856  -10.5075   -4.4272 C   0  0  0  0  0  0  0  0  0  0  0  0
   -4.5250  -11.4370   -3.4364 C   0  0  0  0  0  0  0  0  0  0  0  0
   -3.1633  -11.6636   -3.1793 C   0  0  0  0  0  0  0  0  0  0  0  0
   -5.5792  -12.1282   -2.6011 C   0  0  2  0  0  0  0  0  0  0  0  0
   -8.3176  -11.6821   -0.5281 C   0  0  0  0  0  0  0  0  0  0  0  0
   -7.9721   -9.1496   -0.3297 C   0  0  0  0  0  0  0  0  0  0  0  0
   -6.0016   -8.0806   -1.2683 C   0  0  0  0  0  0  0  0  0  0  0  0
   -8.3484   -7.9160    0.2404 C   0  0  0  0  0  0  0  0  0  0  0  0
   -5.9225  -13.4829   -3.1704 C   0  0  0  0  0  0  0  0  0  0  0  0
   -1.7889   -8.7726   -6.9251 C   0  0  0  0  0  0  0  0  0  0  0  0
   -0.8093   -8.0676   -7.6344 C   0  0  0  0  0  0  0  0  0  0  0  0
    0.4710   -7.9116   -7.0958 C   0  0  0  0  0  0  0  0  0  0  0  0
    2.0163   -8.3167   -5.3238 F   0  0  0  0  0  0  0  0  0  0  0  0
   -4.8594   -8.1620   -1.9979 F   0  0  0  0  0  0  0  0  0  0  0  0
   -7.9176   -5.6023    0.6228 F   0  0  0  0  0  0  0  0  0  0  0  0
   -1.1071   -7.5262   -8.8423 F   0  0  0  0  0  0  0  0  0  0  0  0
    1.4184   -7.2259   -7.7842 F   0  0  0  0  0  0  0  0  0  0  0  0
   -8.7658  -10.3381   -0.1634 N   0  0  0  0  0  0  0  0  0  0  0  0
   -5.7926  -14.6870   -2.3999 N   0  0  0  0  0  0  0  0  0  0  0  0
   -8.8638  -12.2442   -2.7827 O   0  0  0  0  0  0  0  0  0  0  0  0
   -5.0313  -14.7043   -1.2807 O   0  0  0  0  0  0  0  0  0  0  0  0
   -6.3746  -13.5464   -4.3442 O   0  0  0  0  0  0  0  0  0  0  0  0
   -1.1400  -11.1642   -3.6706 H   0  0  0  0  0  0  0  0  0  0  0  0
   -6.6673  -10.2486   -2.7180 H   0  0  0  0  0  0  0  0  0  0  0  0
   -6.4702  -10.1621   -1.5151 H   0  0  0  0  0  0  0  0  0  0  0  0
   -5.7842   -5.9769   -0.8597 H   0  0  0  0  0  0  0  0  0  0  0  0
    0.0541   -9.5944   -4.1727 H   0  0  0  0  0  0  0  0  0  0  0  0
   -4.2125   -9.1310   -5.9215 H   0  0  0  0  0  0  0  0  0  0  0  0
   -5.9281  -10.3024   -4.6349 H   0  0  0  0  0  0  0  0  0  0  0  0
   -2.8562  -12.3529   -2.4025 H   0  0  0  0  0  0  0  0  0  0  0  0
   -5.1678  -12.3069   -1.5818 H   0  0  0  0  0  0  0  0  0  0  0  0
   -7.3905  -11.9251    0.0348 H   0  0  0  0  0  0  0  0  0  0  0  0
   -9.0802  -12.4349   -0.2377 H   0  0  0  0  0  0  0  0  0  0  0  0
   -9.2408   -7.8240    0.8380 H   0  0  0  0  0  0  0  0  0  0  0  0
   -2.7795   -8.8675   -7.3522 H   0  0  0  0  0  0  0  0  0  0  0  0
   -9.6757  -10.2627    0.3464 H   0  0  0  0  0  0  0  0  0  0  0  0
   -6.2957  -15.5610   -2.6751 H   0  0  0  0  0  0  0  0  0  0  0  0
   -4.1322  -14.9814   -1.5917 H   0  0  0  0  0  0  0  0  0  0  0  0
  2  3  1  0
  5  6  4  0
  7  8  4  0
  8  9  4  0
  1 10  4  0
  9 10  1  0
 10 11  4  0
 11 12  4  0
 12 13  4  0
 13 14  4  0
  1 14  4  0
 15  2  1  0
 13 15  1  0
  3 16  1  0
  4 17  4  0
  4 18  4  0
  5 18  4  0
 17 19  4  0
  6 19  4  0
 15 20  1  0
  9 21  4  0
 21 22  4  0
  7 23  4  0
 22 23  4  0
  7 24  1  0
 18 25  1  0
  6 26  1  0
 22 27  1  0
 23 28  1  0
 16 29  1  0
 17 29  1  0
 20 30  1  0
  3 31  2  0
 30 32  1  0
 20 33  2  0
  1 34  1  0
  2 35  1  0
  4 36  1  0
  5 37  1  0
  8 38  1  0
 11 39  1  0
 12 40  1  0
 14 41  1  0
 15 42  1  1
 16 43  1  0
 16 44  1  0
 19 45  1  0
 21 46  1  0
 29 47  1  0
 30 48  1  0
 32 49  1  0
M  END
