6ZC3_JOR_B_401
     RDKit          3D

 15 15  0  0  0  0  0  0  0  0999 V2000
  -12.8543   27.0561    0.3395 C   0  0  0  0  0  0  0  0  0  0  0  0
  -12.5752   25.6639    1.4140 S   0  0  2  0  0  0  0  0  0  0  0  0
  -11.1133   25.3351    1.4336 O   0  0  0  0  0  0  0  0  0  0  0  0
  -13.3510   24.4841    0.9092 O   0  0  0  0  0  0  0  0  0  0  0  0
  -13.0695   26.0359    2.9244 N   0  0  0  0  0  0  0  0  0  0  0  0
  -12.3817   26.9052    3.6616 C   0  0  0  0  0  0  0  0  0  0  0  0
  -11.0334   26.6830    3.9216 C   0  0  0  0  0  0  0  0  0  0  0  0
  -10.3127   27.5868    4.6953 C   0  0  0  0  0  0  0  0  0  0  0  0
  -10.9428   28.7090    5.2219 C   0  0  0  0  0  0  0  0  0  0  0  0
  -10.2536   29.5883    5.9741 F   0  0  0  0  0  0  0  0  0  0  0  0
  -12.2898   28.9278    4.9678 C   0  0  0  0  0  0  0  0  0  0  0  0
  -13.0110   28.0264    4.1940 C   0  0  0  0  0  0  0  0  0  0  0  0
  -14.4929   28.2881    3.9335 C   0  0  0  0  0  0  0  0  0  0  0  0
  -15.1880   27.3449    3.4977 O   0  0  0  0  0  0  0  0  0  0  0  0
  -14.9335   29.4252    4.2096 O   0  0  0  0  0  0  0  0  0  0  0  0
  2  1  1  6
  2  3  2  0
  2  4  2  0
  2  5  1  0
  5  6  1  0
  6  7  2  0
  7  8  1  0
  8  9  2  0
  9 10  1  0
  9 11  1  0
 11 12  2  0
  6 12  1  0
 12 13  1  0
 13 14  2  0
 13 15  1  0
M  END
