7T1D_E7K_B_1010
     RDKit          3D

 60 65  0  0  0  0  0  0  0  0999 V2000
   19.8929   -9.8530   27.4143 N   0  0  0  0  0  0  0  0  0  0  0  0
   24.7449   -7.1250   20.2986 N   0  0  0  0  0  0  0  0  0  0  0  0
   20.6185   -9.7254   25.0323 C   0  0  0  0  0  0  0  0  0  0  0  0
   21.8001   -7.0979   26.0018 C   0  0  0  0  0  0  0  0  0  0  0  0
   21.6611   -5.7004   26.2764 C   0  0  0  0  0  0  0  0  0  0  0  0
   22.4037   -4.7626   25.5082 C   0  0  0  0  0  0  0  0  0  0  0  0
   23.2350   -5.1675   24.4866 C   0  0  0  0  0  0  0  0  0  0  0  0
   25.1984   -4.7872   23.0598 C   0  0  0  0  0  0  0  0  0  0  0  0
   22.6435   -7.5231   24.9969 C   0  0  0  0  0  0  0  0  0  0  0  0
   25.5583   -7.3094   19.1745 C   0  0  0  0  0  0  0  0  0  0  0  0
   27.7319   -6.7900   18.0364 C   0  0  0  0  0  0  0  0  0  0  0  0
   26.9881   -7.7827   14.4916 C   0  0  0  0  0  0  0  0  0  0  0  0
   26.3404   -9.0480   14.6463 C   0  0  0  0  0  0  0  0  0  0  0  0
   26.0719   -9.5518   15.8990 C   0  0  0  0  0  0  0  0  0  0  0  0
   25.1219   -9.3111   12.5167 C   0  0  0  0  0  0  0  0  0  0  0  0
   25.9152  -11.2874   12.0362 C   0  0  0  0  0  0  0  0  0  0  0  0
   20.5147   -9.2510   26.4148 C   0  0  0  0  0  0  0  0  0  0  0  0
   20.0478   -8.9906   28.5131 C   0  0  0  0  0  0  0  0  0  0  0  0
   19.5140   -9.3130   29.8389 C   0  0  0  0  0  0  0  0  0  0  0  0
   21.0845   -8.0309   26.8168 N   0  0  0  0  0  4  0  0  0  0  0  0
   20.7851   -7.8536   28.1688 C   0  0  0  0  0  0  0  0  0  0  0  0
   23.3480   -6.5728   24.2424 C   0  0  0  0  0  0  0  0  0  0  0  0
   24.1910   -7.1218   23.1490 C   0  0  0  0  0  0  0  0  0  0  0  0
   24.8173   -6.0552   22.3669 N   0  0  0  0  0  0  0  0  0  0  0  0
   23.9581   -4.1875   23.6501 C   0  0  0  0  0  0  0  0  0  0  0  0
   25.3791   -6.4077   21.1590 C   0  0  0  0  0  0  0  0  0  0  0  0
   26.9199   -5.8425   20.6562 S   0  0  0  0  0  0  0  0  0  0  0  0
   26.7493   -6.6943   19.1661 C   0  0  0  0  0  0  0  0  0  0  0  0
   27.1917   -7.6165   16.8623 C   0  0  0  0  0  0  0  0  0  0  0  0
   26.4709   -8.8594   17.0379 C   0  0  0  0  0  0  0  0  0  0  0  0
   27.4048   -7.1283   15.6031 C   0  0  0  0  0  0  0  0  0  0  0  0
   25.9657   -9.7577   13.5346 N   0  0  0  0  0  4  0  0  0  0  0  0
   26.4885  -10.9797   13.1991 N   0  0  0  0  0  0  0  0  0  0  0  0
   25.0724  -10.2505   11.5508 C   0  0  0  0  0  0  0  0  0  0  0  0
   20.1204  -10.6679   24.9402 H   0  0  0  0  0  0  0  0  0  0  0  0
   20.1613   -9.0146   24.3761 H   0  0  0  0  0  0  0  0  0  0  0  0
   21.6497   -9.8400   24.7710 H   0  0  0  0  0  0  0  0  0  0  0  0
   21.0283   -5.3766   27.0245 H   0  0  0  0  0  0  0  0  0  0  0  0
   22.3183   -3.7562   25.7204 H   0  0  0  0  0  0  0  0  0  0  0  0
   25.9047   -4.9962   23.8357 H   0  0  0  0  0  0  0  0  0  0  0  0
   25.6453   -4.1059   22.3662 H   0  0  0  0  0  0  0  0  0  0  0  0
   22.7554   -8.5303   24.8017 H   0  0  0  0  0  0  0  0  0  0  0  0
   25.2527   -7.8964   18.3825 H   0  0  0  0  0  0  0  0  0  0  0  0
   27.9536   -5.8027   17.6887 H   0  0  0  0  0  0  0  0  0  0  0  0
   28.6083   -7.2805   18.4058 H   0  0  0  0  0  0  0  0  0  0  0  0
   27.1350   -7.3766   13.5544 H   0  0  0  0  0  0  0  0  0  0  0  0
   25.5711  -10.4493   15.9939 H   0  0  0  0  0  0  0  0  0  0  0  0
   24.6187   -8.4102   12.5051 H   0  0  0  0  0  0  0  0  0  0  0  0
   26.0666  -12.1806   11.5419 H   0  0  0  0  0  0  0  0  0  0  0  0
   18.9942  -10.2473   29.7965 H   0  0  0  0  0  0  0  0  0  0  0  0
   20.3191   -9.3843   30.5398 H   0  0  0  0  0  0  0  0  0  0  0  0
   18.8389   -8.5427   30.1485 H   0  0  0  0  0  0  0  0  0  0  0  0
   21.0485   -7.0621   28.7766 H   0  0  0  0  0  0  0  0  0  0  0  0
   24.9566   -7.7358   23.5752 H   0  0  0  0  0  0  0  0  0  0  0  0
   23.5641   -7.6926   22.4963 H   0  0  0  0  0  0  0  0  0  0  0  0
   23.3159   -3.8641   22.8578 H   0  0  0  0  0  0  0  0  0  0  0  0
   24.2426   -3.3609   24.2672 H   0  0  0  0  0  0  0  0  0  0  0  0
   26.2591   -9.2215   17.9807 H   0  0  0  0  0  0  0  0  0  0  0  0
   27.9006   -6.2296   15.4952 H   0  0  0  0  0  0  0  0  0  0  0  0
   24.5447  -10.2232   10.6643 H   0  0  0  0  0  0  0  0  0  0  0  0
  4  5  4  0
  5  6  4  0
  6  7  4  0
  4  9  4  0
  2 10  4  0
 12 13  4  0
 13 14  4  0
  1 17  4  0
  3 17  1  0
  1 18  4  0
 18 19  1  0
 17 20  4  0
  4 20  1  0
 18 21  4  0
 20 21  4  0
  9 22  4  0
  7 22  4  0
 22 23  1  0
 23 24  1  0
  8 24  1  0
  7 25  1  0
  8 25  1  0
 24 26  1  0
  2 26  4  0
 26 27  4  0
 10 28  4  0
 27 28  4  0
 11 28  1  0
 11 29  1  0
 29 30  4  0
 14 30  4  0
 29 31  4  0
 12 31  4  0
 13 32  1  0
 15 32  4  0
 32 33  4  0
 16 33  4  0
 15 34  4  0
 16 34  4  0
  3 35  1  0
  3 36  1  0
  3 37  1  0
  5 38  1  0
  6 39  1  0
  8 40  1  0
  8 41  1  0
  9 42  1  0
 10 43  1  0
 11 44  1  0
 11 45  1  0
 12 46  1  0
 14 47  1  0
 15 48  1  0
 16 49  1  0
 19 50  1  0
 19 51  1  0
 19 52  1  0
 21 53  1  0
 23 54  1  0
 23 55  1  0
 25 56  1  0
 25 57  1  0
 30 58  1  0
 31 59  1  0
 34 60  1  0
M  CHG  2  20   1  32   1
M  END
