8BN6_R53_A_303
     RDKit          3D

 45 48  0  0  0  0  0  0  0  0999 V2000
   -1.9414   -2.5051    2.3406 C   0  0  0  0  0  0  0  0  0  0  0  0
    5.1607    1.8483    0.6892 C   0  0  0  0  0  0  0  0  0  0  0  0
    0.4928   -1.8172    2.3741 C   0  0  0  0  0  0  0  0  0  0  0  0
    1.6204    0.1146    2.3726 C   0  0  0  0  0  0  0  0  0  0  0  0
    1.7725    2.6183    4.8950 C   0  0  0  0  0  0  0  0  0  0  0  0
    1.9446    1.4378    2.6927 C   0  0  0  0  0  0  0  0  0  0  0  0
   -0.1763    2.6314    3.1908 C   0  0  0  0  0  0  0  0  0  0  0  0
   -0.9372    3.3490    4.3025 C   0  0  0  0  0  0  0  0  0  0  0  0
    0.8128    3.4233    5.7860 C   0  0  0  0  0  0  0  0  0  0  0  0
    3.1109    1.9980    2.1331 C   0  0  0  0  0  0  0  0  0  0  0  0
    3.9367    1.2444    1.2621 C   0  0  0  0  0  0  0  0  0  0  0  0
   -3.4332   -0.6924    1.4614 N   0  0  0  0  0  4  0  0  0  0  0  0
   -0.5608   -2.7441    2.6696 N   0  0  0  0  0  0  0  0  0  0  0  0
   -2.3222   -1.4552    1.3674 C   0  0  0  0  0  0  0  0  0  0  0  0
    0.5391   -0.5513    2.8533 N   0  0  0  0  0  0  0  0  0  0  0  0
   -4.5348    1.0956    0.0846 C   0  0  0  0  0  0  0  0  0  0  0  0
   -3.4479    0.1163    0.3827 C   0  0  0  0  0  0  0  0  0  0  0  0
   -2.8491   -3.1776    2.9025 O   0  0  0  0  0  0  0  0  0  0  0  0
    1.1542    2.1873    3.6292 N   0  0  0  0  0  0  0  0  0  0  0  0
   -0.0719    4.2071    5.0125 O   0  0  0  0  0  0  0  0  0  0  0  0
    5.5492    3.1347    1.0578 O   0  0  0  0  0  0  0  0  0  0  0  0
    5.8653    1.2033   -0.1346 O   0  0  0  0  0  0  0  0  0  0  0  0
    3.5877   -0.0894    0.9595 C   0  0  0  0  0  0  0  0  0  0  0  0
    2.4322   -0.6207    1.5256 C   0  0  0  0  0  0  0  0  0  0  0  0
    1.7953   -2.1664    1.3492 S   0  0  0  0  0  0  0  0  0  0  0  0
   -1.6191   -1.1159    0.2171 C   0  0  0  0  0  0  0  0  0  0  0  0
   -0.1562   -1.8655   -0.4121 Cl  0  0  0  0  0  0  0  0  0  0  0  0
   -2.3384   -0.1164   -0.4047 C   0  0  0  0  0  0  0  0  0  0  0  0
   -1.9546    0.6494   -1.9412 Cl  0  0  0  0  0  0  0  0  0  0  0  0
    2.6637    3.2461    4.6741 H   0  0  0  0  0  0  0  0  0  0  0  0
    2.1191    1.7224    5.4604 H   0  0  0  0  0  0  0  0  0  0  0  0
   -0.7751    1.7593    2.8560 H   0  0  0  0  0  0  0  0  0  0  0  0
   -0.0580    3.3200    2.3275 H   0  0  0  0  0  0  0  0  0  0  0  0
   -1.7472    3.9592    3.8455 H   0  0  0  0  0  0  0  0  0  0  0  0
   -1.4367    2.6111    4.9743 H   0  0  0  0  0  0  0  0  0  0  0  0
    1.4140    4.1054    6.4299 H   0  0  0  0  0  0  0  0  0  0  0  0
    0.2587    2.7492    6.4838 H   0  0  0  0  0  0  0  0  0  0  0  0
    3.3718    3.0182    2.3866 H   0  0  0  0  0  0  0  0  0  0  0  0
   -4.1464   -0.7020    2.2249 H   0  0  0  0  0  0  0  0  0  0  0  0
   -0.2817   -3.6572    3.0906 H   0  0  0  0  0  0  0  0  0  0  0  0
   -4.1180    2.1276    0.0993 H   0  0  0  0  0  0  0  0  0  0  0  0
   -5.3469    1.0175    0.8425 H   0  0  0  0  0  0  0  0  0  0  0  0
   -4.9503    0.8854   -0.9257 H   0  0  0  0  0  0  0  0  0  0  0  0
    6.3836    3.5593    0.6685 H   0  0  0  0  0  0  0  0  0  0  0  0
    4.2009   -0.7018    0.3097 H   0  0  0  0  0  0  0  0  0  0  0  0
  4  6  4  0
  7  8  1  0
  5  9  1  0
  6 10  4  0
 10 11  4  0
  2 11  1  0
  3 13  1  0
  1 13  1  0
  1 14  1  0
 12 14  4  0
  4 15  4  0
  3 15  4  0
 12 17  4  0
 16 17  1  0
  1 18  2  0
  5 19  1  0
  7 19  1  0
  6 19  1  0
  9 20  1  0
  8 20  1  0
  2 21  1  0
  2 22  2  0
 11 23  4  0
  4 24  4  0
 23 24  4  0
  3 25  4  0
 24 25  4  0
 14 26  4  0
 26 27  1  0
 26 28  4  0
 17 28  4  0
 28 29  1  0
  5 30  1  0
  5 31  1  0
  7 32  1  0
  7 33  1  0
  8 34  1  0
  8 35  1  0
  9 36  1  0
  9 37  1  0
 10 38  1  0
 12 39  1  0
 13 40  1  0
 16 41  1  0
 16 42  1  0
 16 43  1  0
 21 44  1  0
 23 45  1  0
M  CHG  1  12   1
M  END
