7WY1_D0L_B_502
     RDKit          3D

 26 27  0  0  0  0  0  0  0  0999 V2000
   -1.9230  -30.9950  -73.1190 C   0  0  0  0  0  0  0  0  0  0  0  0
   -1.9440  -31.1250  -71.7500 C   0  0  0  0  0  0  0  0  0  0  0  0
   -0.2230  -24.8180  -68.6540 C   0  0  0  0  0  0  0  0  0  0  0  0
    0.9670  -26.2240  -67.0480 C   0  0  0  0  0  0  0  0  0  0  0  0
   -1.2560  -30.0930  -70.9010 C   0  0  0  0  0  0  0  0  0  0  0  0
    1.9780  -27.7470  -68.6420 C   0  0  0  0  0  0  0  0  0  0  0  0
    0.2420  -27.3630  -70.4160 C   0  0  0  0  0  0  0  0  0  0  0  0
   -2.5310  -32.2430  -71.1780 C   0  0  0  0  0  0  0  0  0  0  0  0
    1.6970  -27.5540  -67.1530 C   0  0  0  0  0  0  0  0  0  0  0  0
    1.0350  -26.7430  -69.2980 C   0  0  1  0  0  0  0  0  0  0  0  0
   -2.5260  -31.9530  -73.8790 C   0  0  0  0  0  0  0  0  0  0  0  0
   -1.7930  -28.6590  -70.9610 C   0  0  1  0  0  0  0  0  0  0  0  0
   -3.1410  -33.0750  -73.3380 C   0  0  0  0  0  0  0  0  0  0  0  0
   -3.2030  -28.5950  -70.4450 C   0  0  0  0  0  0  0  0  0  0  0  0
   -3.1350  -33.2200  -71.9730 C   0  0  0  0  0  0  0  0  0  0  0  0
   -3.3720  -28.2980  -69.2310 O   0  0  0  0  0  0  0  0  0  0  0  0
    0.7110  -27.3210  -71.5540 O   0  0  0  0  0  0  0  0  0  0  0  0
   -4.1720  -28.8390  -71.2240 O   0  0  0  0  0  0  0  0  0  0  0  0
    0.1580  -26.1900  -68.2210 N   0  0  0  0  0  0  0  0  0  0  0  0
   -1.3990  -24.1960  -67.9330 C   0  0  0  0  0  0  0  0  0  0  0  0
   -0.9470  -22.8960  -67.2720 C   0  0  0  0  0  0  0  0  0  0  0  0
   -2.0050  -22.3000  -66.3390 C   0  0  0  0  0  0  0  0  0  0  0  0
   -1.3070  -21.2530  -65.4700 C   0  0  0  0  0  0  0  0  0  0  0  0
   -2.2300  -20.4110  -64.6020 C   0  0  0  0  0  0  0  0  0  0  0  0
   -3.0320  -21.2350  -63.5950 C   0  0  0  0  0  0  0  0  0  0  0  0
   -0.9150  -27.9260  -70.0940 N   0  0  0  0  0  0  0  0  0  0  0  0
  1  2  2  0
  2  5  1  0
  2  8  1  0
  4  9  1  0
  6  9  1  0
  6 10  1  0
 10  7  1  6
  1 11  1  0
 12  5  1  1
 11 13  2  0
 12 14  1  0
 13 15  1  0
  8 15  2  0
 14 16  2  0
  7 17  2  0
 14 18  1  0
  4 19  1  0
  3 19  1  0
 10 19  1  0
  3 20  1  0
 20 21  1  0
 21 22  1  0
 22 23  1  0
 23 24  1  0
 24 25  1  0
  7 26  1  0
 12 26  1  0
M  END
$$$$
7WY1_D0L_A_502
     RDKit          3D

 26 27  0  0  0  0  0  0  0  0999 V2000
   12.9540  -30.7710   -1.7530 C   0  0  0  0  0  0  0  0  0  0  0  0
   12.9750  -30.9230   -3.1280 C   0  0  0  0  0  0  0  0  0  0  0  0
   11.5780  -24.6640   -6.2770 C   0  0  0  0  0  0  0  0  0  0  0  0
   10.2950  -25.9890   -7.9180 C   0  0  0  0  0  0  0  0  0  0  0  0
   12.2500  -29.9060   -3.9820 C   0  0  0  0  0  0  0  0  0  0  0  0
    9.2080  -27.4950   -6.3720 C   0  0  0  0  0  0  0  0  0  0  0  0
   10.8970  -27.1180   -4.5520 C   0  0  0  0  0  0  0  0  0  0  0  0
   13.6360  -32.0170   -3.6880 C   0  0  0  0  0  0  0  0  0  0  0  0
    9.5620  -27.3200   -7.8590 C   0  0  0  0  0  0  0  0  0  0  0  0
   10.1360  -26.4990   -5.6770 C   0  0  1  0  0  0  0  0  0  0  0  0
   13.6050  -31.6860   -0.9230 C   0  0  0  0  0  0  0  0  0  0  0  0
   12.8440  -28.4940   -3.9450 C   0  0  1  0  0  0  0  0  0  0  0  0
   14.2570  -32.7780   -1.4690 C   0  0  0  0  0  0  0  0  0  0  0  0
   14.2740  -28.4720   -4.4340 C   0  0  0  0  0  0  0  0  0  0  0  0
   14.2730  -32.9400   -2.8480 C   0  0  0  0  0  0  0  0  0  0  0  0
   14.4720  -28.2430   -5.6630 O   0  0  0  0  0  0  0  0  0  0  0  0
   10.4250  -27.0840   -3.4240 O   0  0  0  0  0  0  0  0  0  0  0  0
   15.2090  -28.6980   -3.6400 O   0  0  0  0  0  0  0  0  0  0  0  0
   11.0740  -26.0000   -6.7070 N   0  0  0  0  0  0  0  0  0  0  0  0
   12.7580  -24.1550   -7.0780 C   0  0  0  0  0  0  0  0  0  0  0  0
   12.4090  -22.8230   -7.7150 C   0  0  0  0  0  0  0  0  0  0  0  0
   13.4740  -22.3020   -8.6740 C   0  0  0  0  0  0  0  0  0  0  0  0
   12.8360  -21.1830   -9.4940 C   0  0  0  0  0  0  0  0  0  0  0  0
   13.8280  -20.4320  -10.3660 C   0  0  0  0  0  0  0  0  0  0  0  0
   14.4830  -21.3530  -11.3880 C   0  0  0  0  0  0  0  0  0  0  0  0
   12.0540  -27.7020   -4.8690 N   0  0  0  0  0  0  0  0  0  0  0  0
  1  2  2  0
  2  5  1  0
  2  8  1  0
  4  9  1  0
  6  9  1  0
  6 10  1  0
 10  7  1  1
  1 11  1  0
 12  5  1  6
 11 13  2  0
 12 14  1  0
 13 15  1  0
  8 15  2  0
 14 16  2  0
  7 17  2  0
 14 18  1  0
  4 19  1  0
  3 19  1  0
 10 19  1  0
  3 20  1  0
 20 21  1  0
 21 22  1  0
 22 23  1  0
 23 24  1  0
 24 25  1  0
  7 26  1  0
 12 26  1  0
M  END
$$$$
