7WY1_D0L_B_502
     RDKit          3D

 58 59  0  0  0  0  0  0  0  0999 V2000
   -4.5919    1.6807   -0.8793 C   0  0  0  0  0  0  0  0  0  0  0  0
   -3.3606    1.3790   -1.4850 C   0  0  0  0  0  0  0  0  0  0  0  0
    1.7082   -3.4417    0.8644 C   0  0  0  0  0  0  0  0  0  0  0  0
    1.8486   -2.1762    2.9551 C   0  0  0  0  0  0  0  0  0  0  0  0
   -2.2122    0.8639   -0.6538 C   0  0  0  0  0  0  0  0  0  0  0  0
   -0.4968   -1.9849    3.4909 C   0  0  0  0  0  0  0  0  0  0  0  0
   -1.2966   -2.3860    1.1466 C   0  0  0  0  0  0  0  0  0  0  0  0
   -3.2244    1.5244   -2.8758 C   0  0  0  0  0  0  0  0  0  0  0  0
    0.8859   -1.5359    3.9383 C   0  0  0  0  0  0  0  0  0  0  0  0
   -0.2708   -2.7536    2.1855 C   0  0  1  0  0  0  0  0  0  0  0  0
   -5.6628    2.1401   -1.6522 C   0  0  0  0  0  0  0  0  0  0  0  0
   -2.3147   -0.6544   -0.4106 C   0  0  1  0  0  0  0  0  0  0  0  0
   -5.5165    2.2912   -3.0336 C   0  0  0  0  0  0  0  0  0  0  0  0
   -2.1665   -1.4167   -1.6993 C   0  0  0  0  0  0  0  0  0  0  0  0
   -4.2991    1.9819   -3.6448 C   0  0  0  0  0  0  0  0  0  0  0  0
   -3.0709   -2.2129   -2.0671 O   0  0  0  0  0  0  0  0  0  0  0  0
   -2.1889   -3.2224    0.8386 O   0  0  0  0  0  0  0  0  0  0  0  0
   -1.0260   -1.2562   -2.4803 O   0  0  0  0  0  0  0  0  0  0  0  0
    1.0851   -2.4140    1.7294 N   0  0  0  0  0  0  0  0  0  0  0  0
    1.7145   -2.9810   -0.5999 C   0  0  0  0  0  0  0  0  0  0  0  0
    2.7144   -1.8424   -0.8791 C   0  0  0  0  0  0  0  0  0  0  0  0
    2.1360   -0.4499   -0.5750 C   0  0  0  0  0  0  0  0  0  0  0  0
    3.1090    0.6806   -0.9410 C   0  0  0  0  0  0  0  0  0  0  0  0
    4.2093    0.8613    0.1150 C   0  0  0  0  0  0  0  0  0  0  0  0
    5.1342    2.0206   -0.2456 C   0  0  0  0  0  0  0  0  0  0  0  0
   -1.2848   -1.0847    0.5395 N   0  0  0  0  0  0  0  0  0  0  0  0
   -4.7196    1.5622    0.1893 H   0  0  0  0  0  0  0  0  0  0  0  0
    1.1702   -4.4132    0.9229 H   0  0  0  0  0  0  0  0  0  0  0  0
    2.7587   -3.6548    1.1660 H   0  0  0  0  0  0  0  0  0  0  0  0
    2.2208   -3.1346    3.3878 H   0  0  0  0  0  0  0  0  0  0  0  0
    2.7085   -1.5027    2.7485 H   0  0  0  0  0  0  0  0  0  0  0  0
   -1.2420    1.1098   -1.1394 H   0  0  0  0  0  0  0  0  0  0  0  0
   -2.2156    1.3882    0.3268 H   0  0  0  0  0  0  0  0  0  0  0  0
   -1.1513   -1.0945    3.3513 H   0  0  0  0  0  0  0  0  0  0  0  0
   -0.9596   -2.6464    4.2563 H   0  0  0  0  0  0  0  0  0  0  0  0
   -2.2881    1.2833   -3.3629 H   0  0  0  0  0  0  0  0  0  0  0  0
    1.1021   -1.8576    4.9805 H   0  0  0  0  0  0  0  0  0  0  0  0
    0.9640   -0.4281    3.8716 H   0  0  0  0  0  0  0  0  0  0  0  0
   -0.3474   -3.8415    2.4202 H   0  0  0  0  0  0  0  0  0  0  0  0
   -6.6071    2.3769   -1.1808 H   0  0  0  0  0  0  0  0  0  0  0  0
   -3.3132   -0.8660    0.0343 H   0  0  0  0  0  0  0  0  0  0  0  0
   -6.3468    2.6459   -3.6304 H   0  0  0  0  0  0  0  0  0  0  0  0
   -4.1884    2.0948   -4.7153 H   0  0  0  0  0  0  0  0  0  0  0  0
   -0.9115   -1.7713   -3.3449 H   0  0  0  0  0  0  0  0  0  0  0  0
    2.0106   -3.8532   -1.2219 H   0  0  0  0  0  0  0  0  0  0  0  0
    0.6900   -2.6962   -0.9194 H   0  0  0  0  0  0  0  0  0  0  0  0
    2.9832   -1.8795   -1.9571 H   0  0  0  0  0  0  0  0  0  0  0  0
    3.6479   -2.0102   -0.3024 H   0  0  0  0  0  0  0  0  0  0  0  0
    1.8713   -0.3635    0.4952 H   0  0  0  0  0  0  0  0  0  0  0  0
    1.2064   -0.3129   -1.1642 H   0  0  0  0  0  0  0  0  0  0  0  0
    2.5303    1.6284   -1.0153 H   0  0  0  0  0  0  0  0  0  0  0  0
    3.5646    0.4861   -1.9374 H   0  0  0  0  0  0  0  0  0  0  0  0
    4.8189   -0.0638    0.1982 H   0  0  0  0  0  0  0  0  0  0  0  0
    3.7456    1.0682    1.1047 H   0  0  0  0  0  0  0  0  0  0  0  0
    5.6599    1.8093   -1.2015 H   0  0  0  0  0  0  0  0  0  0  0  0
    4.5558    2.9646   -0.3455 H   0  0  0  0  0  0  0  0  0  0  0  0
    5.8922    2.1521    0.5558 H   0  0  0  0  0  0  0  0  0  0  0  0
   -0.5436   -0.4082    0.8345 H   0  0  0  0  0  0  0  0  0  0  0  0
  1  2  2  0
  2  5  1  0
  2  8  1  0
  4  9  1  0
  6  9  1  0
  6 10  1  0
 10  7  1  0
  1 11  1  0
 12  5  1  0
 11 13  2  0
 12 14  1  0
 13 15  1  0
  8 15  2  0
 14 16  2  0
  7 17  2  0
 14 18  1  0
  4 19  1  0
  3 19  1  0
 10 19  1  0
  3 20  1  0
 20 21  1  0
 21 22  1  0
 22 23  1  0
 23 24  1  0
 24 25  1  0
  7 26  1  0
 12 26  1  0
  1 27  1  0
  3 28  1  0
  3 29  1  0
  4 30  1  0
  4 31  1  0
  5 32  1  0
  5 33  1  0
  6 34  1  0
  6 35  1  0
  8 36  1  0
  9 37  1  0
  9 38  1  0
 10 39  1  1
 11 40  1  0
 12 41  1  1
 13 42  1  0
 15 43  1  0
 18 44  1  0
 20 45  1  0
 20 46  1  0
 21 47  1  0
 21 48  1  0
 22 49  1  0
 22 50  1  0
 23 51  1  0
 23 52  1  0
 24 53  1  0
 24 54  1  0
 25 55  1  0
 25 56  1  0
 25 57  1  0
 26 58  1  0
M  END
