
     RDKit          3D

 20 23  0  0  0  0  0  0  0  0999 V2000
    1.9044  -41.5050   -3.2205 C   0  0  0  0  0  0  0  0  0  0  0  0
    1.9630  -38.1265    2.5352 C   0  0  2  0  0  0  0  0  0  0  0  0
   -0.4846  -41.3754   -3.0892 C   0  0  0  0  0  0  0  0  0  0  0  0
    1.1121  -37.0327    0.4656 C   0  0  0  0  0  0  0  0  0  0  0  0
   -0.1840  -40.7602   -1.7155 C   0  0  0  0  0  0  0  0  0  0  0  0
    1.0576  -38.8902   -0.7732 C   0  0  0  0  0  0  0  0  0  0  0  0
    0.7848  -37.4980   -0.7891 C   0  0  0  0  0  0  0  0  0  0  0  0
    1.7705  -39.0971   -4.0200 C   0  0  0  0  0  0  0  0  0  0  0  0
    1.3006  -39.2146    3.4024 C   0  0  0  0  0  0  0  0  0  0  0  0
    0.4857  -38.4853    4.4690 C   0  0  0  0  0  0  0  0  0  0  0  0
    0.2587  -37.0957    3.9028 C   0  0  0  0  0  0  0  0  0  0  0  0
    1.5873  -36.7922    3.2135 C   0  0  2  0  0  0  0  0  0  0  0  0
    1.9337  -40.0154   -2.8072 C   0  0  0  0  0  0  0  0  0  0  0  0
    1.0963  -35.7153    1.0221 C   0  0  0  0  0  0  0  0  0  0  0  0
    1.5069  -38.1379    1.1545 N   0  0  0  0  0  0  0  0  0  0  0  0
    1.5194  -39.2637    0.4257 N   0  0  0  0  0  0  0  0  0  0  0  0
    1.4995  -35.6423    2.3333 N   0  0  0  0  0  0  0  0  0  0  0  0
    0.8703  -39.7369   -1.8220 N   0  0  0  0  0  0  0  0  0  0  0  0
    0.7828  -34.6994    0.4125 O   0  0  0  0  0  0  0  0  0  0  0  0
    0.6513  -41.9414   -3.7598 O   0  0  0  0  0  0  0  0  0  0  0  0
  3  5  1  0
  4  7  4  0
  6  7  4  0
  2  9  1  1
  9 10  1  0
 10 11  1  0
 12 11  1  6
  2 12  1  0
 13  8  1  0
  1 13  1  0
  4 14  1  0
  2 15  1  0
  4 15  4  0
 15 16  4  0
  6 16  4  0
 12 17  1  0
 14 17  1  0
  6 18  1  0
  5 18  1  0
 13 18  1  0
 14 19  2  0
  3 20  1  0
  1 20  1  0
M  END
