7N4N_0BK_A_401
     RDKit          3D

 55 57  0  0  0  0  0  0  0  0999 V2000
   -3.8417   -1.2955   -7.7662 C   0  0  0  0  0  0  0  0  0  0  0  0
   -3.5631   -1.5908   -5.3235 C   0  0  0  0  0  0  0  0  0  0  0  0
   -2.7455   -1.9716   -4.2582 C   0  0  0  0  0  0  0  0  0  0  0  0
   -3.2551   -1.8944   -2.9532 C   0  0  0  0  0  0  0  0  0  0  0  0
   -5.3088   -1.0787   -3.8110 C   0  0  0  0  0  0  0  0  0  0  0  0
   -2.2269   -2.4063    0.7394 C   0  0  0  0  0  0  0  0  0  0  0  0
   -0.7809   -2.6126    3.1380 C   0  0  0  0  0  0  0  0  0  0  0  0
   -0.2037   -1.9144    2.0485 C   0  0  0  0  0  0  0  0  0  0  0  0
   -0.9622   -1.8038    0.8579 C   0  0  0  0  0  0  0  0  0  0  0  0
    1.1847   -1.2559    2.1716 C   0  0  2  0  0  0  0  0  0  0  0  0
    2.3545    0.7585    3.1765 C   0  0  0  0  0  0  0  0  0  0  0  0
    2.5591    1.4048    1.7819 C   0  0  2  0  0  0  0  0  0  0  0  0
    4.8253    2.7627    3.1387 C   0  0  0  0  0  0  0  0  0  0  0  0
   -3.0705   -1.6666   -6.6298 O   0  0  0  0  0  0  0  0  0  0  0  0
   -4.5263   -1.4470   -2.7639 N   0  0  0  0  0  0  0  0  0  0  0  0
   -4.8277   -1.1516   -5.0784 N   0  0  0  0  0  0  0  0  0  0  0  0
   -2.4330   -2.2842   -1.7870 C   0  0  0  0  0  0  0  0  0  0  0  0
   -1.2366   -2.6453   -1.9589 O   0  0  0  0  0  0  0  0  0  0  0  0
   -3.0022   -2.2869   -0.4661 N   0  0  0  0  0  0  0  0  0  0  0  0
   -2.7686   -3.0822    1.8367 C   0  0  0  0  0  0  0  0  0  0  0  0
   -2.0490   -3.1865    3.0244 C   0  0  0  0  0  0  0  0  0  0  0  0
   -0.1368   -2.7288    4.3254 F   0  0  0  0  0  0  0  0  0  0  0  0
    2.2440   -2.3191    2.5514 C   0  0  0  0  0  0  0  0  0  0  0  0
    2.1379   -3.4251    1.7247 F   0  0  0  0  0  0  0  0  0  0  0  0
    1.1134   -0.1310    3.2314 C   0  0  0  0  0  0  0  0  0  0  0  0
    1.6465    2.6405    1.6427 C   0  0  0  0  0  0  0  0  0  0  0  0
    2.2295    0.4229    0.6563 C   0  0  0  0  0  0  0  0  0  0  0  0
    2.4934    0.7771   -0.7053 N   0  0  0  0  0  0  0  0  0  0  0  0
    1.5917   -0.6925    0.8763 N   0  0  0  0  0  0  0  0  0  0  0  0
    4.2894    1.9282    1.6566 S   0  0  0  0  0  6  0  0  0  0  0  0
    4.4775    2.8732    0.5027 O   0  0  0  0  0  0  0  0  0  0  0  0
    5.1608    0.7214    1.4458 O   0  0  0  0  0  0  0  0  0  0  0  0
   -4.1279   -0.2246   -7.6980 H   0  0  0  0  0  0  0  0  0  0  0  0
   -4.7545   -1.9248   -7.8287 H   0  0  0  0  0  0  0  0  0  0  0  0
   -3.2361   -1.4477   -8.6830 H   0  0  0  0  0  0  0  0  0  0  0  0
   -1.7387   -2.3208   -4.4500 H   0  0  0  0  0  0  0  0  0  0  0  0
   -6.3160   -0.7271   -3.6351 H   0  0  0  0  0  0  0  0  0  0  0  0
   -0.5925   -1.2265    0.0231 H   0  0  0  0  0  0  0  0  0  0  0  0
    2.2668    1.5430    3.9601 H   0  0  0  0  0  0  0  0  0  0  0  0
    3.2395    0.1465    3.4529 H   0  0  0  0  0  0  0  0  0  0  0  0
    4.8346    2.0533    3.9910 H   0  0  0  0  0  0  0  0  0  0  0  0
    5.8506    3.1591    2.9885 H   0  0  0  0  0  0  0  0  0  0  0  0
    4.1396    3.6045    3.3653 H   0  0  0  0  0  0  0  0  0  0  0  0
   -4.0437   -2.3007   -0.3761 H   0  0  0  0  0  0  0  0  0  0  0  0
   -3.7505   -3.5338    1.7686 H   0  0  0  0  0  0  0  0  0  0  0  0
   -2.4799   -3.7132    3.8664 H   0  0  0  0  0  0  0  0  0  0  0  0
    2.1437   -2.6486    3.6051 H   0  0  0  0  0  0  0  0  0  0  0  0
    3.2686   -1.9077    2.4333 H   0  0  0  0  0  0  0  0  0  0  0  0
    0.2094    0.4934    3.0609 H   0  0  0  0  0  0  0  0  0  0  0  0
    1.0282   -0.5534    4.2549 H   0  0  0  0  0  0  0  0  0  0  0  0
    0.5757    2.3495    1.6736 H   0  0  0  0  0  0  0  0  0  0  0  0
    1.8257    3.1612    0.6789 H   0  0  0  0  0  0  0  0  0  0  0  0
    1.8352    3.3665    2.4612 H   0  0  0  0  0  0  0  0  0  0  0  0
    2.8647    1.7138   -0.9704 H   0  0  0  0  0  0  0  0  0  0  0  0
    2.2623    0.1090   -1.4741 H   0  0  0  0  0  0  0  0  0  0  0  0
  2  3  2  0
  3  4  1  0
  7  8  2  0
  8  9  1  0
  6  9  2  0
  8 10  1  0
 11 12  1  0
  2 14  1  0
  1 14  1  0
  4 15  2  0
  5 15  1  0
  2 16  1  0
  5 16  2  0
  4 17  1  0
 17 18  2  0
  6 19  1  0
 17 19  1  0
  6 20  1  0
  7 21  1  0
 20 21  2  0
  7 22  1  0
 10 23  1  1
 23 24  1  0
 11 25  1  0
 10 25  1  0
 12 26  1  1
 12 27  1  0
 27 28  1  0
 27 29  2  0
 10 29  1  0
 13 30  1  0
 12 30  1  0
 30 31  2  0
 30 32  2  0
  1 33  1  0
  1 34  1  0
  1 35  1  0
  3 36  1  0
  5 37  1  0
  9 38  1  0
 11 39  1  0
 11 40  1  0
 13 41  1  0
 13 42  1  0
 13 43  1  0
 19 44  1  0
 20 45  1  0
 21 46  1  0
 23 47  1  0
 23 48  1  0
 25 49  1  0
 25 50  1  0
 26 51  1  0
 26 52  1  0
 26 53  1  0
 28 54  1  0
 28 55  1  0
M  END
