1V0P_PVB_A_1287
     RDKit          3D

 55 57  0  0  0  0  0  0  0  0999 V2000
   28.5772   12.2123   16.3013 N   0  0  0  0  0  0  0  0  0  0  0  0
   25.0459   13.0680   19.9569 C   0  0  1  0  0  0  0  0  0  0  0  0
   26.2665   12.3402   19.5916 N   0  0  0  0  0  0  0  0  0  0  0  0
   26.9549   12.4108   18.4451 C   0  0  0  0  0  0  0  0  0  0  0  0
   26.6279   13.1005   17.3257 N   0  0  0  0  0  0  0  0  0  0  0  0
   27.4511   12.9972   16.2387 C   0  0  0  0  0  0  0  0  0  0  0  0
   28.9199   11.5307   17.4345 C   0  0  0  0  0  0  0  0  0  0  0  0
   28.0573   11.6310   18.5263 C   0  0  0  0  0  0  0  0  0  0  0  0
   28.1124   11.0200   19.7257 N   0  0  0  0  0  0  0  0  0  0  0  0
   27.0015   11.4890   20.3566 C   0  0  0  0  0  0  0  0  0  0  0  0
   30.0896   10.6989   17.4427 N   0  0  0  0  0  0  0  0  0  0  0  0
   30.3717    9.7040   18.4424 C   0  0  0  0  0  0  0  0  0  0  0  0
   29.9298    9.8541   19.7646 C   0  0  0  0  0  0  0  0  0  0  0  0
   30.2257    8.8829   20.7231 C   0  0  0  0  0  0  0  0  0  0  0  0
   30.9905    7.7480   20.3925 C   0  0  0  0  0  0  0  0  0  0  0  0
   31.4593    7.6115   19.0603 C   0  0  0  0  0  0  0  0  0  0  0  0
   32.4031    6.2285   18.5078 Cl  0  0  0  0  0  0  0  0  0  0  0  0
   31.1520    8.5920   18.1066 C   0  0  0  0  0  0  0  0  0  0  0  0
   31.2723    6.7490   21.4580 C   0  0  0  0  0  0  0  0  0  0  0  0
   31.0971    7.0936   22.7968 O   0  0  0  0  0  0  0  0  0  0  0  0
   31.6851    5.5923   21.1775 O   0  0  0  0  0  0  0  0  0  0  0  0
   27.1235   13.7108   15.0385 N   0  0  0  0  0  0  0  0  0  0  0  0
   26.7535   13.0497   13.7803 C   0  0  2  0  0  0  0  0  0  0  0  0
   26.2767   14.0844   12.7209 C   0  0  1  0  0  0  0  0  0  0  0  0
   25.1110   14.9628   13.2069 C   0  0  1  0  0  0  0  0  0  0  0  0
   27.4401   14.9715   12.2533 C   0  0  1  0  0  0  0  0  0  0  0  0
   25.6955   11.9644   14.0524 C   0  0  2  0  0  0  0  0  0  0  0  0
   25.9221   11.3696   15.3021 O   0  0  0  0  0  0  0  0  0  0  0  0
   23.8262   12.1419   19.8954 C   0  0  1  0  0  0  0  0  0  0  0  0
   25.1983   13.6840   21.3508 C   0  0  2  0  0  0  0  0  0  0  0  0
   24.8789   13.8960   19.2321 H   0  0  0  0  0  0  0  0  0  0  0  0
   26.7376   11.2099   21.3686 H   0  0  0  0  0  0  0  0  0  0  0  0
   30.7988   10.8575   16.6909 H   0  0  0  0  0  0  0  0  0  0  0  0
   29.3639   10.7287   20.0591 H   0  0  0  0  0  0  0  0  0  0  0  0
   29.8645    9.0317   21.7333 H   0  0  0  0  0  0  0  0  0  0  0  0
   31.5096    8.4799   17.0897 H   0  0  0  0  0  0  0  0  0  0  0  0
   30.9218    6.3840   23.4991 H   0  0  0  0  0  0  0  0  0  0  0  0
   27.2491   14.7488   15.0398 H   0  0  0  0  0  0  0  0  0  0  0  0
   27.6351   12.5184   13.3570 H   0  0  0  0  0  0  0  0  0  0  0  0
   25.9220   13.5234   11.8281 H   0  0  0  0  0  0  0  0  0  0  0  0
   24.7089   15.5590   12.3593 H   0  0  0  0  0  0  0  0  0  0  0  0
   24.2803   14.3403   13.5969 H   0  0  0  0  0  0  0  0  0  0  0  0
   25.4417   15.6677   14.0005 H   0  0  0  0  0  0  0  0  0  0  0  0
   28.2256   15.0383   13.0359 H   0  0  0  0  0  0  0  0  0  0  0  0
   27.8902   14.5609   11.3228 H   0  0  0  0  0  0  0  0  0  0  0  0
   27.0737   15.9990   12.0328 H   0  0  0  0  0  0  0  0  0  0  0  0
   25.7678   11.1711   13.2779 H   0  0  0  0  0  0  0  0  0  0  0  0
   24.6653   12.3858   14.0070 H   0  0  0  0  0  0  0  0  0  0  0  0
   25.6857   10.4089   15.2123 H   0  0  0  0  0  0  0  0  0  0  0  0
   23.9565   11.3949   19.0823 H   0  0  0  0  0  0  0  0  0  0  0  0
   23.6885   11.6051   20.8599 H   0  0  0  0  0  0  0  0  0  0  0  0
   22.9101   12.7352   19.6871 H   0  0  0  0  0  0  0  0  0  0  0  0
   24.3363   14.3490   21.5724 H   0  0  0  0  0  0  0  0  0  0  0  0
   26.1299   14.2898   21.3945 H   0  0  0  0  0  0  0  0  0  0  0  0
   25.2483   12.8901   22.1266 H   0  0  0  0  0  0  0  0  0  0  0  0
  2  3  1  0
  3  4  1  0
  4  5  2  0
  1  6  2  0
  5  6  1  0
  1  7  1  0
  4  8  1  0
  7  8  2  0
  8  9  1  0
  3 10  1  0
  9 10  2  0
  7 11  1  0
 11 12  1  0
 12 13  2  0
 13 14  1  0
 14 15  2  0
 15 16  1  0
 16 17  1  0
 12 18  1  0
 16 18  2  0
 15 19  1  0
 19 20  1  0
 19 21  2  0
  6 22  1  0
 22 23  1  0
 23 24  1  0
 24 25  1  0
 24 26  1  0
 23 27  1  0
 27 28  1  0
  2 29  1  0
  2 30  1  0
  2 31  1  6
 10 32  1  0
 11 33  1  0
 13 34  1  0
 14 35  1  0
 18 36  1  0
 20 37  1  0
 22 38  1  0
 23 39  1  6
 24 40  1  6
 25 41  1  6
 25 42  1  0
 25 43  1  0
 26 44  1  1
 26 45  1  0
 26 46  1  0
 27 47  1  6
 27 48  1  0
 28 49  1  0
 29 50  1  6
 29 51  1  0
 29 52  1  0
 30 53  1  1
 30 54  1  0
 30 55  1  0
M  END
