7QSW_CAP_A_501
     RDKit          3D

 21 20  0  0  0  0  0  0  0  0999 V2000
   83.8298   79.9359   74.7341 C   0  0  0  0  0  0  0  0  0  0  0  0
   82.4733   80.6183   74.6117 C   0  0  1  0  0  0  0  0  0  0  0  0
   81.4266   79.6359   73.9687 C   0  0  1  0  0  0  0  0  0  0  0  0
   80.9225   78.5360   74.9456 C   0  0  1  0  0  0  0  0  0  0  0  0
   79.4554   78.1042   74.6015 C   0  0  0  0  0  0  0  0  0  0  0  0
   81.9995   81.0601   76.0303 C   0  0  0  0  0  0  0  0  0  0  0  0
   84.6979   80.7985   75.3745 O   0  0  0  0  0  0  0  0  0  0  0  0
   82.5308   81.7810   73.8362 O   0  0  0  0  0  0  0  0  0  0  0  0
   80.3732   80.4043   73.4531 O   0  0  0  0  0  0  0  0  0  0  0  0
   81.7412   77.3988   74.8968 O   0  0  0  0  0  0  0  0  0  0  0  0
   79.2969   76.7773   75.0907 O   0  0  0  0  0  0  0  0  0  0  0  0
   82.8068   81.0614   76.9796 O   0  0  0  0  0  0  0  0  0  0  0  0
   80.7901   81.3913   76.1253 O   0  0  0  0  0  0  0  0  0  0  0  0
   86.3017   80.1632   75.5706 P   0  0  1  0  0  0  0  0  0  0  0  0
   80.0335   75.5599   74.1574 P   0  0  1  0  0  0  0  0  0  0  0  0
   86.0330   78.7779   76.1562 O   0  0  0  0  0  0  0  0  0  0  0  0
   86.9534   80.1585   74.1788 O   0  0  0  0  0  0  0  0  0  0  0  0
   86.9289   81.1413   76.5492 O   0  0  0  0  0  0  0  0  0  0  0  0
   80.6404   74.6847   75.2519 O   0  0  0  0  0  0  0  0  0  0  0  0
   78.9535   74.8728   73.3502 O   0  0  0  0  0  0  0  0  0  0  0  0
   81.0810   76.3235   73.3448 O   0  0  0  0  0  0  0  0  0  0  0  0
  1  2  1  0
  2  3  1  0
  3  4  1  0
  4  5  1  0
  2  6  1  0
  1  7  1  0
  2  8  1  6
  3  9  1  1
  4 10  1  6
  5 11  1  0
  6 12  2  0
  6 13  1  0
  7 14  1  0
 11 15  1  0
 14 16  2  0
 14 17  1  6
 14 18  1  0
 15 19  2  0
 15 20  1  6
 15 21  1  0
M  END
