7NR8_UOE_A_408
     RDKit          3D

 84 89  0  0  0  0  0  0  0  0999 V2000
    4.9176   12.7168   47.7273 C   0  0  0  0  0  0  0  0  0  0  0  0
    4.0046   11.4909   47.7990 C   0  0  1  0  0  0  0  0  0  0  0  0
    5.4010    8.1277   47.1031 C   0  0  0  0  0  0  0  0  0  0  0  0
    5.5669    6.7632   47.0527 C   0  0  0  0  0  0  0  0  0  0  0  0
    6.5711    6.2158   46.2845 C   0  0  0  0  0  0  0  0  0  0  0  0
    7.4309    7.0253   45.5450 C   0  0  0  0  0  0  0  0  0  0  0  0
    6.2442    8.9491   46.3757 C   0  0  0  0  0  0  0  0  0  0  0  0
    5.8383   10.3536   46.6154 C   0  0  0  0  0  0  0  0  0  0  0  0
    8.5394    6.3922   44.7803 C   0  0  0  0  0  0  0  0  0  0  0  0
    9.1866    5.4818   42.7675 C   0  0  0  0  0  0  0  0  0  0  0  0
    9.2284    7.3835   38.3852 C   0  0  0  0  0  0  0  0  0  0  0  0
    6.9615    6.8065   38.6183 C   0  0  0  0  0  0  0  0  0  0  0  0
    7.2372    5.8378   39.7556 C   0  0  0  0  0  0  0  0  0  0  0  0
   10.6746    5.3242   44.4811 C   0  0  0  0  0  0  0  0  0  0  0  0
    9.7689    5.9753   45.3089 C   0  0  0  0  0  0  0  0  0  0  0  0
    2.6849   11.7153   47.0603 C   0  0  0  0  0  0  0  0  0  0  0  0
    2.7979    9.0122   47.5734 C   0  0  0  0  0  0  0  0  0  0  0  0
    1.1763   10.4894   51.7479 C   0  0  0  0  0  0  0  0  0  0  0  0
    1.0661    9.2089   52.2115 C   0  0  0  0  0  0  0  0  0  0  0  0
    1.1190    8.1410   51.3041 C   0  0  0  0  0  0  0  0  0  0  0  0
    0.4994    5.7950   50.7668 C   0  0  0  0  0  0  0  0  0  0  0  0
    1.5909    2.7355   52.7285 C   0  0  0  0  0  0  0  0  0  0  0  0
    4.6813   10.2968   47.3175 N   0  0  0  0  0  0  0  0  0  0  0  0
    4.3837    8.9599   47.8226 C   0  0  0  0  0  0  0  0  0  0  0  0
    7.2638    8.4177   45.6101 C   0  0  0  0  0  0  0  0  0  0  0  0
    6.3996   11.3889   46.2727 O   0  0  0  0  0  0  0  0  0  0  0  0
    8.2474    6.1159   43.5157 N   0  0  0  0  0  0  0  0  0  0  0  0
    8.8956    5.2430   41.4787 N   0  0  0  0  0  0  0  0  0  0  0  0
    8.5082    6.2386   40.5044 C   0  0  1  0  0  0  0  0  0  0  0  0
    9.6490    6.4640   39.5149 C   0  0  0  0  0  0  0  0  0  0  0  0
    8.0707    6.8756   37.7062 O   0  0  0  0  0  0  0  0  0  0  0  0
   10.4050    5.0969   43.2034 N   0  0  0  0  0  0  0  0  0  0  0  0
   10.1985    6.2421   46.9656 Cl  0  0  0  0  0  0  0  0  0  0  0  0
    2.6211   12.3510   46.0089 O   0  0  0  0  0  0  0  0  0  0  0  0
    1.6275   11.1569   47.6434 N   0  0  0  0  0  0  0  0  0  0  0  0
    1.5445    9.7549   48.0420 C   0  0  2  0  0  0  0  0  0  0  0  0
    3.9342    9.8683   47.6212 O   0  0  0  0  0  0  0  0  0  0  0  0
    1.3909    9.6078   49.5437 C   0  0  0  0  0  0  0  0  0  0  0  0
    1.3391   10.6969   50.3943 C   0  0  0  0  0  0  0  0  0  0  0  0
    1.2712    8.3544   49.9794 N   0  0  0  0  0  0  0  0  0  0  0  0
    1.0172    6.8273   51.6719 N   0  0  0  0  0  0  0  0  0  0  0  0
    1.1798    4.4662   51.0241 C   0  0  0  0  0  0  0  0  0  0  0  0
    1.0180    4.0815   52.4557 N   0  0  0  0  0  0  0  0  0  0  0  0
    1.6324    5.1238   53.3320 C   0  0  0  0  0  0  0  0  0  0  0  0
    0.9486    6.4517   53.0865 C   0  0  0  0  0  0  0  0  0  0  0  0
    4.3908   13.5755   48.0878 H   0  0  0  0  0  0  0  0  0  0  0  0
    5.7852   12.5511   48.3312 H   0  0  0  0  0  0  0  0  0  0  0  0
    5.2154   12.8808   46.7127 H   0  0  0  0  0  0  0  0  0  0  0  0
    3.7663   11.3388   48.8310 H   0  0  0  0  0  0  0  0  0  0  0  0
    4.9376    6.1479   47.5917 H   0  0  0  0  0  0  0  0  0  0  0  0
    6.6882    5.1908   46.2563 H   0  0  0  0  0  0  0  0  0  0  0  0
    9.0019    8.3490   38.7869 H   0  0  0  0  0  0  0  0  0  0  0  0
   10.0328    7.4465   37.6824 H   0  0  0  0  0  0  0  0  0  0  0  0
    6.0929    6.4798   38.0857 H   0  0  0  0  0  0  0  0  0  0  0  0
    6.8079    7.7799   39.0353 H   0  0  0  0  0  0  0  0  0  0  0  0
    6.4105    5.8478   40.4349 H   0  0  0  0  0  0  0  0  0  0  0  0
    7.3696    4.8566   39.3498 H   0  0  0  0  0  0  0  0  0  0  0  0
   11.5777    5.0103   44.8698 H   0  0  0  0  0  0  0  0  0  0  0  0
    2.9658    8.1689   48.2102 H   0  0  0  0  0  0  0  0  0  0  0  0
    2.6509    8.6898   46.5637 H   0  0  0  0  0  0  0  0  0  0  0  0
    1.1382   11.2884   52.4001 H   0  0  0  0  0  0  0  0  0  0  0  0
    0.9452    9.0291   53.2205 H   0  0  0  0  0  0  0  0  0  0  0  0
   -0.5536    5.6865   50.9236 H   0  0  0  0  0  0  0  0  0  0  0  0
    0.6960    6.0922   49.7579 H   0  0  0  0  0  0  0  0  0  0  0  0
    1.1302    2.0148   52.0857 H   0  0  0  0  0  0  0  0  0  0  0  0
    2.6453    2.7530   52.5468 H   0  0  0  0  0  0  0  0  0  0  0  0
    1.4092    2.4707   53.7492 H   0  0  0  0  0  0  0  0  0  0  0  0
    4.5154    8.9057   48.8831 H   0  0  0  0  0  0  0  0  0  0  0  0
    3.3734    8.6488   47.6571 H   0  0  0  0  0  0  0  0  0  0  0  0
    7.8995    9.0412   45.0886 H   0  0  0  0  0  0  0  0  0  0  0  0
    8.9508    4.3097   41.1705 H   0  0  0  0  0  0  0  0  0  0  0  0
    8.3004    7.1474   41.0294 H   0  0  0  0  0  0  0  0  0  0  0  0
    9.9451    5.5213   39.1045 H   0  0  0  0  0  0  0  0  0  0  0  0
   10.4621    6.9230   40.0376 H   0  0  0  0  0  0  0  0  0  0  0  0
    0.8459   11.7295   47.8184 H   0  0  0  0  0  0  0  0  0  0  0  0
    0.6765    9.3313   47.5816 H   0  0  0  0  0  0  0  0  0  0  0  0
    4.0762   10.1664   48.5334 H   0  0  0  0  0  0  0  0  0  0  0  0
    1.4213   11.6551   50.0200 H   0  0  0  0  0  0  0  0  0  0  0  0
    0.7380    3.7152   50.4029 H   0  0  0  0  0  0  0  0  0  0  0  0
    2.2221    4.5549   50.7990 H   0  0  0  0  0  0  0  0  0  0  0  0
    1.5122    4.8443   54.3578 H   0  0  0  0  0  0  0  0  0  0  0  0
    2.6750    5.2111   53.1075 H   0  0  0  0  0  0  0  0  0  0  0  0
   -0.0781    6.3752   53.3783 H   0  0  0  0  0  0  0  0  0  0  0  0
    1.4483    7.2026   53.6620 H   0  0  0  0  0  0  0  0  0  0  0  0
  2  1  1  0
  3  4  4  0
  4  5  4  0
  5  6  4  0
  3  7  4  0
  7  8  1  0
  6  9  1  0
 12 13  1  0
  9 15  4  0
 14 15  4  0
  2 16  1  0
 18 19  4  0
 19 20  4  0
  8 23  1  0
  2 23  1  0
 23 24  1  0
  3 24  1  0
  6 25  4  0
  7 25  4  0
  8 26  2  0
 10 27  4  0
  9 27  4  0
 10 28  1  0
 13 29  1  0
 28 29  1  0
 11 30  1  0
 29 30  1  0
 11 31  1  0
 12 31  1  0
 10 32  4  0
 14 32  4  0
 15 33  1  0
 16 34  2  0
 16 35  1  0
 35 36  1  0
 36 17  1  0
 17 37  1  0
 36 38  1  0
 38 39  4  0
 18 39  4  0
 20 40  4  0
 38 40  4  0
 21 41  1  0
 20 41  1  0
 21 42  1  0
 22 43  1  0
 42 43  1  0
 43 44  1  0
 44 45  1  0
 41 45  1  0
  1 46  1  0
  1 47  1  0
  1 48  1  0
  2 49  1  6
  4 50  1  0
  5 51  1  0
 11 52  1  0
 11 53  1  0
 12 54  1  0
 12 55  1  0
 13 56  1  0
 13 57  1  0
 14 58  1  0
 17 59  1  0
 17 60  1  0
 18 61  1  0
 19 62  1  0
 21 63  1  0
 21 64  1  0
 22 65  1  0
 22 66  1  0
 22 67  1  0
 24 68  1  0
 24 69  1  0
 25 70  1  0
 28 71  1  0
 29 72  1  6
 30 73  1  0
 30 74  1  0
 35 75  1  0
 36 76  1  1
 37 77  1  0
 39 78  1  0
 42 79  1  0
 42 80  1  0
 44 81  1  0
 44 82  1  0
 45 83  1  0
 45 84  1  0
M  END
