7MGT_ZD4_A_403
     RDKit          3D

 42 44  0  0  0  0  0  0  0  0999 V2000
   46.7903   29.6836   13.1780 C   0  0  2  0  0  0  0  0  0  0  0  0
   43.0311   30.6961   11.0222 C   0  0  0  0  0  0  0  0  0  0  0  0
   47.8114   30.5634   13.9065 C   0  0  1  0  0  0  0  0  0  0  0  0
   46.9350   31.5643   14.6159 C   0  0  1  0  0  0  0  0  0  0  0  0
   45.3439   30.4432   11.2356 C   0  0  0  0  0  0  0  0  0  0  0  0
   45.6249   30.7956   14.8102 C   0  0  1  0  0  0  0  0  0  0  0  0
   45.5224   30.6854    9.9168 C   0  0  0  0  0  0  0  0  0  0  0  0
   44.4042   31.6898   14.5681 C   0  0  2  0  0  0  0  0  0  0  0  0
   44.4274   30.9583    9.1041 C   0  0  0  0  0  0  0  0  0  0  0  0
   47.3979   30.2080   10.7663 C   0  0  0  0  0  0  0  0  0  0  0  0
   43.1911   30.9598    9.6859 N   0  0  0  0  0  0  0  0  0  0  0  0
   44.1153   30.4272   11.8095 N   0  0  0  0  0  0  0  0  0  0  0  0
   44.5723   31.2102    7.7064 N   0  0  0  0  0  0  0  0  0  0  0  0
   46.8163   30.5415    9.5818 N   0  0  0  0  0  0  0  0  0  0  0  0
   46.5255   30.1636   11.8109 N   0  0  0  0  0  0  0  0  0  0  0  0
   41.0059   30.8999   15.1248 O   0  0  0  0  0  0  0  0  0  0  0  0
   40.0000   32.2178   16.3022 O   0  0  0  0  0  0  0  0  0  0  0  0
   48.5831   29.8019   14.8083 O   0  0  0  0  0  0  0  0  0  0  0  0
   41.1309   32.0181   12.7601 O   0  0  0  0  0  0  0  0  0  0  0  0
   39.8586   34.7099   15.1366 O   0  0  0  0  0  0  0  0  0  0  0  0
   47.4930   31.9636   15.8413 O   0  0  0  0  0  0  0  0  0  0  0  0
   42.2298   33.2243   15.0396 O   0  0  0  0  0  0  0  0  0  0  0  0
   41.3053   34.2550   17.2796 O   0  0  0  0  0  0  0  0  0  0  0  0
   45.5961   29.6863   13.9330 O   0  0  0  0  0  0  0  0  0  0  0  0
   43.3661   30.9213   14.0080 O   0  0  0  0  0  0  0  0  0  0  0  0
   41.8972   31.7524   14.2497 P   0  0  1  0  0  5  0  0  0  0  0  0
   40.8660   33.6336   15.9721 P   0  0  2  0  0  5  0  0  0  0  0  0
   41.4260   30.6797   11.7194 Cl  0  0  0  0  0  0  0  0  0  0  0  0
   47.1683   28.6402   13.1108 H   0  0  0  0  0  0  0  0  0  0  0  0
   48.5056   31.0855   13.2157 H   0  0  0  0  0  0  0  0  0  0  0  0
   46.7977   32.4488   13.9484 H   0  0  0  0  0  0  0  0  0  0  0  0
   45.5739   30.4057   15.8515 H   0  0  0  0  0  0  0  0  0  0  0  0
   44.6934   32.5071   13.8691 H   0  0  0  0  0  0  0  0  0  0  0  0
   44.0983   32.1267   15.5471 H   0  0  0  0  0  0  0  0  0  0  0  0
   48.4487   29.9641   10.8496 H   0  0  0  0  0  0  0  0  0  0  0  0
   45.5172   31.2815    7.2676 H   0  0  0  0  0  0  0  0  0  0  0  0
   43.7273   31.3281    7.1045 H   0  0  0  0  0  0  0  0  0  0  0  0
   39.5560   32.3877   17.1712 H   0  0  0  0  0  0  0  0  0  0  0  0
   48.4966   30.2052   15.7123 H   0  0  0  0  0  0  0  0  0  0  0  0
   41.6050   31.4300   12.1207 H   0  0  0  0  0  0  0  0  0  0  0  0
   39.1996   34.1340   14.6732 H   0  0  0  0  0  0  0  0  0  0  0  0
   46.7676   32.4183   16.3437 H   0  0  0  0  0  0  0  0  0  0  0  0
  1  3  1  0
  3  4  1  0
  4  6  1  0
  5  7  1  0
  6  8  1  0
  7  9  2  0
  2 11  2  0
  9 11  1  0
  2 12  1  0
  5 12  2  0
  9 13  1  0
  7 14  1  0
 10 14  2  0
  5 15  1  0
  1 15  1  0
 10 15  1  0
  3 18  1  0
  4 21  1  0
  6 24  1  0
  1 24  1  0
  8 25  1  0
 16 26  2  0
 26 22  1  1
 26 19  1  0
 25 26  1  0
 23 27  2  0
 27 17  1  1
 22 27  1  0
 20 27  1  0
  2 28  1  0
  1 29  1  6
  3 30  1  6
  4 31  1  6
  6 32  1  1
  8 33  1  6
  8 34  1  0
 10 35  1  0
 13 36  1  0
 13 37  1  0
 17 38  1  0
 18 39  1  0
 19 40  1  0
 20 41  1  0
 21 42  1  0
M  END
