1OF6_DTY_A_1370
     RDKit          3D

 13 13  0  0  0  0  0  0  0  0999 V2000
   49.2733   29.2292   65.4241 N   0  0  0  0  0  0  0  0  0  0  0  0
   49.5160   30.6526   65.1927 C   0  0  2  0  0  0  0  0  0  0  0  0
   48.4817   31.5139   65.8807 C   0  0  0  0  0  0  0  0  0  0  0  0
   48.7058   32.6967   66.2674 O   0  0  0  0  0  0  0  0  0  0  0  0
   49.4753   30.8916   63.6830 C   0  0  0  0  0  0  0  0  0  0  0  0
   50.4593   30.0819   62.8601 C   0  0  0  0  0  0  0  0  0  0  0  0
   50.0380   28.9388   62.2529 C   0  0  0  0  0  0  0  0  0  0  0  0
   51.7886   30.4728   62.7477 C   0  0  0  0  0  0  0  0  0  0  0  0
   50.9367   28.2034   61.5304 C   0  0  0  0  0  0  0  0  0  0  0  0
   52.6951   29.7590   61.9874 C   0  0  0  0  0  0  0  0  0  0  0  0
   52.2349   28.6063   61.3617 C   0  0  0  0  0  0  0  0  0  0  0  0
   53.0175   27.8605   60.6889 O   0  0  0  0  0  0  0  0  0  0  0  0
   47.3799   30.9853   66.0114 O   0  0  0  0  0  0  0  0  0  0  0  0
  2  1  1  6
  2  3  1  0
  3  4  2  0
  2  5  1  0
  5  6  1  0
  6  7  2  0
  6  8  1  0
  7  9  1  0
  8 10  2  0
  9 11  2  0
 10 11  1  0
 11 12  1  0
  3 13  1  0
M  END
