7TXP_0FX_A_301
     RDKit          3D

 62 64  0  0  0  0  0  0  0  0999 V2000
   -9.5956  -16.9823   26.5572 O   0  0  0  0  0  0  0  0  0  0  0  0
  -10.7826  -17.4971   25.8117 P   0  0  2  0  0  5  0  0  0  0  0  0
  -11.5366  -18.6112   26.4634 O   0  0  0  0  0  0  0  0  0  0  0  0
  -10.3036  -17.8499   24.3178 O   0  0  0  0  0  0  0  0  0  0  0  0
  -10.1900  -16.8392   23.3747 C   0  0  1  0  0  0  0  0  0  0  0  0
  -10.5631  -15.5380   24.0208 C   0  0  1  0  0  0  0  0  0  0  0  0
  -11.8896  -15.5649   24.5588 O   0  0  0  0  0  0  0  0  0  0  0  0
   -9.5863  -15.1885   25.1355 C   0  0  2  0  0  0  0  0  0  0  0  0
   -9.8551  -13.9048   25.6911 O   0  0  0  0  0  0  0  0  0  0  0  0
   -8.1611  -15.2234   24.6047 C   0  0  1  0  0  0  0  0  0  0  0  0
   -7.2421  -14.9955   25.7255 N   0  0  0  0  0  0  0  0  0  0  0  0
   -7.8476  -16.5416   23.8866 C   0  0  2  0  0  0  0  0  0  0  0  0
   -6.5354  -16.5587   23.1200 C   0  0  0  0  0  0  0  0  0  0  0  0
   -8.8554  -16.8040   22.8988 O   0  0  0  0  0  0  0  0  0  0  0  0
  -11.8151  -16.3038   25.5506 O   0  0  0  0  0  0  0  0  0  0  0  0
  -13.3274  -16.2918   25.0400 P   0  0  1  0  0  5  0  0  0  0  0  0
  -13.4930  -15.2114   24.0305 O   0  0  0  0  0  0  0  0  0  0  0  0
  -13.7063  -17.6785   24.6312 O   0  0  0  0  0  0  0  0  0  0  0  0
  -14.1649  -15.8344   26.2920 O   0  0  0  0  0  0  0  0  0  0  0  0
  -13.8405  -16.2137   27.6279 C   0  0  0  0  0  0  0  0  0  0  0  0
  -13.0187  -17.4665   27.4925 C   0  0  2  0  0  0  0  0  0  0  0  0
  -11.6645  -17.1453   27.8929 O   0  0  0  0  0  0  0  0  0  0  0  0
  -12.9952  -17.9879   26.0510 C   0  0  2  0  0  0  0  0  0  0  0  0
  -13.1668  -19.3935   25.9426 O   0  0  0  0  0  0  0  0  0  0  0  0
  -11.5968  -17.5963   25.5991 C   0  0  0  0  0  0  0  0  0  0  0  0
  -10.7836  -17.6271   26.8830 C   0  0  1  0  0  0  0  0  0  0  0  0
   -9.5953  -16.7551   26.9088 N   0  0  0  0  0  4  0  0  0  0  0  0
   -9.5247  -15.7404   27.8329 C   0  0  0  0  0  0  0  0  0  0  0  0
   -8.4958  -14.8722   27.8926 C   0  0  0  0  0  0  0  0  0  0  0  0
   -8.4172  -13.7899   28.9154 C   0  0  0  0  0  0  0  0  0  0  0  0
   -8.5923  -16.9624   25.9925 C   0  0  0  0  0  0  0  0  0  0  0  0
   -8.6231  -17.8471   25.1620 O   0  0  0  0  0  0  0  0  0  0  0  0
   -7.5621  -16.0624   26.0497 N   0  0  0  0  0  4  0  0  0  0  0  0
   -7.4060  -15.0408   26.9554 C   0  0  0  0  0  0  0  0  0  0  0  0
   -6.3851  -14.3343   26.8765 O   0  0  0  0  0  0  0  0  0  0  0  0
   -8.9721  -17.7086   26.7135 H   0  0  0  0  0  0  0  0  0  0  0  0
  -10.8436  -17.0141   22.5459 H   0  0  0  0  0  0  0  0  0  0  0  0
  -10.5218  -14.7934   23.2533 H   0  0  0  0  0  0  0  0  0  0  0  0
  -11.9417  -16.2365   25.2569 H   0  0  0  0  0  0  0  0  0  0  0  0
   -9.7060  -15.9164   25.9106 H   0  0  0  0  0  0  0  0  0  0  0  0
   -9.7524  -13.2272   25.0045 H   0  0  0  0  0  0  0  0  0  0  0  0
   -8.0409  -14.4510   23.8739 H   0  0  0  0  0  0  0  0  0  0  0  0
   -7.3610  -15.7344   26.4186 H   0  0  0  0  0  0  0  0  0  0  0  0
   -6.2811  -15.0016   25.3837 H   0  0  0  0  0  0  0  0  0  0  0  0
   -7.8006  -17.2650   24.6738 H   0  0  0  0  0  0  0  0  0  0  0  0
   -6.5743  -15.8375   22.3303 H   0  0  0  0  0  0  0  0  0  0  0  0
   -5.7315  -16.3180   23.7837 H   0  0  0  0  0  0  0  0  0  0  0  0
   -6.3766  -17.5326   22.7062 H   0  0  0  0  0  0  0  0  0  0  0  0
  -12.9952  -15.4385   23.2295 H   0  0  0  0  0  0  0  0  0  0  0  0
  -13.2748  -15.4439   28.1097 H   0  0  0  0  0  0  0  0  0  0  0  0
  -14.7157  -16.3716   28.2230 H   0  0  0  0  0  0  0  0  0  0  0  0
  -13.4506  -18.2298   28.1058 H   0  0  0  0  0  0  0  0  0  0  0  0
  -13.7987  -17.5858   25.4699 H   0  0  0  0  0  0  0  0  0  0  0  0
  -12.4714  -19.8440   26.4468 H   0  0  0  0  0  0  0  0  0  0  0  0
  -11.2148  -18.2984   24.8881 H   0  0  0  0  0  0  0  0  0  0  0  0
  -11.5688  -16.6437   25.1124 H   0  0  0  0  0  0  0  0  0  0  0  0
  -10.4187  -18.6252   27.0069 H   0  0  0  0  0  0  0  0  0  0  0  0
  -10.2949  -15.6386   28.5123 H   0  0  0  0  0  0  0  0  0  0  0  0
   -9.2991  -13.8069   29.5210 H   0  0  0  0  0  0  0  0  0  0  0  0
   -7.5573  -13.9445   29.5333 H   0  0  0  0  0  0  0  0  0  0  0  0
   -8.3386  -12.8417   28.4260 H   0  0  0  0  0  0  0  0  0  0  0  0
   -6.8574  -16.1573   25.3687 H   0  0  0  0  0  0  0  0  0  0  0  0
  2  1  1  6
  2  3  2  0
  2  4  1  0
  5  4  1  0
  5  6  1  0
  6  7  1  0
  6  8  1  0
  8  9  1  0
  8 10  1  0
 10 11  1  0
 10 12  1  0
 12 13  1  0
 12 14  1  0
  5 14  1  0
  2 15  1  0
 16 15  1  6
 16 17  1  0
 16 18  2  0
 16 19  1  0
 19 20  1  0
 21 20  1  0
 21 22  1  0
 21 23  1  0
 23 24  1  0
 23 25  1  0
 25 26  1  0
 22 26  1  0
 26 27  1  0
 27 28  4  0
 28 29  4  0
 29 30  1  0
 27 31  4  0
 31 32  2  0
 31 33  4  0
 33 34  4  0
 29 34  4  0
 34 35  2  0
  1 36  1  0
  5 37  1  1
  6 38  1  1
  7 39  1  0
  8 40  1  6
  9 41  1  0
 10 42  1  1
 11 43  1  0
 11 44  1  0
 12 45  1  6
 13 46  1  0
 13 47  1  0
 13 48  1  0
 17 49  1  0
 20 50  1  0
 20 51  1  0
 21 52  1  6
 23 53  1  1
 24 54  1  0
 25 55  1  0
 25 56  1  0
 26 57  1  6
 28 58  1  0
 30 59  1  0
 30 60  1  0
 30 61  1  0
 33 62  1  0
M  CHG  2  27   1  33   1
M  END
