7OEO_V9Z_AAA_501
     RDKit          3D

 62 64  0  0  0  0  0  0  0  0999 V2000
   -0.9690   -0.9364    1.7631 N   0  0  0  0  0  0  0  0  0  0  0  0
   -1.5437   -0.3933    0.5173 C   0  0  0  0  0  0  0  0  0  0  0  0
   -3.9183   -1.9977   -3.4872 C   0  0  0  0  0  0  0  0  0  0  0  0
   -4.6790   -3.9296    2.9706 C   0  0  0  0  0  0  0  0  0  0  0  0
   -3.9592   -2.6654    3.0915 N   0  0  0  0  0  0  0  0  0  0  0  0
   -2.5839   -2.5337    2.6821 C   0  0  0  0  0  0  0  0  0  0  0  0
   -1.9642   -3.5286    2.2091 O   0  0  0  0  0  0  0  0  0  0  0  0
   -1.8524   -1.2385    2.8959 C   0  0  0  0  0  0  0  0  0  0  0  0
   -1.4203   -1.3932   -0.6603 C   0  0  0  0  0  0  0  0  0  0  0  0
   -2.4257   -1.1248   -1.7697 C   0  0  0  0  0  0  0  0  0  0  0  0
   -3.0311   -2.2127   -2.4287 C   0  0  0  0  0  0  0  0  0  0  0  0
   -4.2064   -0.6962   -3.9069 C   0  0  0  0  0  0  0  0  0  0  0  0
   -3.6037    0.3932   -3.2726 C   0  0  0  0  0  0  0  0  0  0  0  0
   -2.7150    0.1846   -2.2131 C   0  0  0  0  0  0  0  0  0  0  0  0
   -0.0182   -1.4499   -1.2439 C   0  0  0  0  0  0  0  0  0  0  0  0
    0.6716   -2.6770   -1.2896 C   0  0  0  0  0  0  0  0  0  0  0  0
    1.9519   -2.7506   -1.8458 C   0  0  0  0  0  0  0  0  0  0  0  0
    2.5565   -1.6044   -2.3672 C   0  0  0  0  0  0  0  0  0  0  0  0
    1.8833   -0.3803   -2.3324 C   0  0  0  0  0  0  0  0  0  0  0  0
    0.6021   -0.3006   -1.7795 C   0  0  0  0  0  0  0  0  0  0  0  0
    0.4349   -1.2415    1.8767 C   0  0  0  0  0  0  0  0  0  0  0  0
    0.7855   -2.3615    2.3383 O   0  0  0  0  0  0  0  0  0  0  0  0
    1.4754   -0.2681    1.4764 C   0  0  0  0  0  0  0  0  0  0  0  0
    1.2388    1.1107    1.5683 C   0  0  0  0  0  0  0  0  0  0  0  0
    2.2122    2.0341    1.1595 C   0  0  0  0  0  0  0  0  0  0  0  0
    1.9089    3.5039    1.2375 C   0  0  0  0  0  0  0  0  0  0  0  0
    3.4365    1.5691    0.6381 C   0  0  0  0  0  0  0  0  0  0  0  0
    4.3917    2.4706    0.1619 O   0  0  0  0  0  0  0  0  0  0  0  0
    4.3200    2.9960   -1.1558 C   0  0  0  0  0  0  0  0  0  0  0  0
    3.7083    0.1887    0.6087 C   0  0  0  0  0  0  0  0  0  0  0  0
    5.0094   -0.3219    0.0542 C   0  0  0  0  0  0  0  0  0  0  0  0
    2.7237   -0.7203    1.0235 C   0  0  0  0  0  0  0  0  0  0  0  0
   -1.0729    0.5769    0.2699 H   0  0  0  0  0  0  0  0  0  0  0  0
   -2.6229   -0.1768    0.6786 H   0  0  0  0  0  0  0  0  0  0  0  0
   -4.3807   -2.8423   -3.9845 H   0  0  0  0  0  0  0  0  0  0  0  0
   -4.1444   -4.7217    3.5439 H   0  0  0  0  0  0  0  0  0  0  0  0
   -4.7468   -4.2191    1.8978 H   0  0  0  0  0  0  0  0  0  0  0  0
   -5.7111   -3.8221    3.3802 H   0  0  0  0  0  0  0  0  0  0  0  0
   -4.4552   -1.8457    3.5126 H   0  0  0  0  0  0  0  0  0  0  0  0
   -1.2646   -1.3119    3.8373 H   0  0  0  0  0  0  0  0  0  0  0  0
   -2.5756   -0.4059    3.0339 H   0  0  0  0  0  0  0  0  0  0  0  0
   -1.6703   -2.3889   -0.2306 H   0  0  0  0  0  0  0  0  0  0  0  0
   -2.8148   -3.2323   -2.1251 H   0  0  0  0  0  0  0  0  0  0  0  0
   -4.8954   -0.5330   -4.7257 H   0  0  0  0  0  0  0  0  0  0  0  0
   -3.8257    1.4006   -3.6043 H   0  0  0  0  0  0  0  0  0  0  0  0
   -2.2597    1.0451   -1.7426 H   0  0  0  0  0  0  0  0  0  0  0  0
    0.2217   -3.5780   -0.8922 H   0  0  0  0  0  0  0  0  0  0  0  0
    2.4782   -3.6963   -1.8712 H   0  0  0  0  0  0  0  0  0  0  0  0
    3.5487   -1.6642   -2.7937 H   0  0  0  0  0  0  0  0  0  0  0  0
    2.3574    0.5085   -2.7301 H   0  0  0  0  0  0  0  0  0  0  0  0
    0.1035    0.6594   -1.7653 H   0  0  0  0  0  0  0  0  0  0  0  0
    0.2963    1.4696    1.9658 H   0  0  0  0  0  0  0  0  0  0  0  0
    1.4372    3.8368    0.2895 H   0  0  0  0  0  0  0  0  0  0  0  0
    1.2124    3.7171    2.0766 H   0  0  0  0  0  0  0  0  0  0  0  0
    2.8344    4.0930    1.4128 H   0  0  0  0  0  0  0  0  0  0  0  0
    5.1858    3.6643   -1.3262 H   0  0  0  0  0  0  0  0  0  0  0  0
    4.3520    2.1726   -1.8954 H   0  0  0  0  0  0  0  0  0  0  0  0
    3.3877    3.5788   -1.2871 H   0  0  0  0  0  0  0  0  0  0  0  0
    4.9739   -0.2957   -1.0598 H   0  0  0  0  0  0  0  0  0  0  0  0
    5.8584    0.3100    0.4094 H   0  0  0  0  0  0  0  0  0  0  0  0
    5.2018   -1.3696    0.3830 H   0  0  0  0  0  0  0  0  0  0  0  0
    2.9175   -1.7850    0.9571 H   0  0  0  0  0  0  0  0  0  0  0  0
  1  2  1  0
  4  5  1  0
  5  6  1  0
  6  7  2  0
  1  8  1  0
  6  8  1  0
  2  9  1  0
  9 10  1  0
  3 11  2  0
 10 11  1  0
  3 12  1  0
 12 13  2  0
 13 14  1  0
 10 14  2  0
  9 15  1  0
 15 16  2  0
 16 17  1  0
 17 18  2  0
 18 19  1  0
 15 20  1  0
 19 20  2  0
  1 21  1  0
 21 22  2  0
 21 23  1  0
 23 24  2  0
 24 25  1  0
 25 26  1  0
 25 27  2  0
 27 28  1  0
 28 29  1  0
 27 30  1  0
 30 31  1  0
 23 32  1  0
 30 32  2  0
  2 33  1  0
  2 34  1  0
  3 35  1  0
  4 36  1  0
  4 37  1  0
  4 38  1  0
  5 39  1  0
  8 40  1  0
  8 41  1  0
  9 42  1  0
 11 43  1  0
 12 44  1  0
 13 45  1  0
 14 46  1  0
 16 47  1  0
 17 48  1  0
 18 49  1  0
 19 50  1  0
 20 51  1  0
 24 52  1  0
 26 53  1  0
 26 54  1  0
 26 55  1  0
 29 56  1  0
 29 57  1  0
 29 58  1  0
 31 59  1  0
 31 60  1  0
 31 61  1  0
 32 62  1  0
M  END
