7ULC_56B_B_402
     RDKit          3D

 33 36  0  0  0  0  0  0  0  0999 V2000
   53.4242   17.7963   47.3887 N   0  0  0  0  0  0  0  0  0  0  0  0
   53.9393   20.0516   46.5206 C   0  0  1  0  0  0  0  0  0  0  0  0
   54.7770   19.6462   45.5107 O   0  0  0  0  0  0  0  0  0  0  0  0
   51.0806   21.9205   49.1363 P   0  0  2  0  0  5  0  0  0  0  0  0
   54.0084   19.0642   47.6700 C   0  0  1  0  0  0  0  0  0  0  0  0
   49.6453   15.6484   47.6290 N   0  0  0  0  0  0  0  0  0  0  0  0
   46.7265   13.8453   46.5161 O   0  0  0  0  0  0  0  0  0  0  0  0
   52.1139   17.5214   47.1585 C   0  0  0  0  0  0  0  0  0  0  0  0
   55.4574   16.3706   47.4473 N   0  0  0  0  0  0  0  0  0  0  0  0
   46.0572   16.4596   45.7802 O   0  0  0  0  0  0  0  0  0  0  0  0
   51.9609   16.1607   46.9244 C   0  0  0  0  0  0  0  0  0  0  0  0
   57.3238   14.8233   47.4527 N   0  0  0  0  0  0  0  0  0  0  0  0
   52.9540   13.4425   46.6228 O   0  0  0  0  0  0  0  0  0  0  0  0
   50.6551   15.5214   46.6772 C   0  0  0  0  0  0  0  0  0  0  0  0
   55.0286   14.1273   47.0226 N   0  0  0  0  0  0  0  0  0  0  0  0
   53.3775   19.8050   48.6643 O   0  0  0  0  0  0  0  0  0  0  0  0
   48.5534   14.7868   47.7478 C   0  0  2  0  0  0  0  0  0  0  0  0
   52.4867   21.6481   50.0609 O   0  0  0  0  0  0  0  0  0  0  0  0
   47.6785   14.8292   46.4564 C   0  0  2  0  0  0  0  0  0  0  0  0
   51.1650   21.0519   47.6890 O   0  0  0  0  0  0  0  0  0  0  0  0
   47.1180   16.2369   46.6321 C   0  0  2  0  0  0  0  0  0  0  0  0
   46.7030   16.1599   48.0747 C   0  0  0  0  0  0  0  0  0  0  0  0
   50.9976   23.3901   48.7883 O   0  0  0  0  0  0  0  0  0  0  0  0
   47.5389   15.3192   48.7056 C   0  0  0  0  0  0  0  0  0  0  0  0
   55.8717   21.3423   47.0645 O   0  0  0  0  0  0  0  0  0  0  0  0
   53.2296   15.6460   47.0239 C   0  0  0  0  0  0  0  0  0  0  0  0
   54.1378   16.6433   47.3100 C   0  0  0  0  0  0  0  0  0  0  0  0
   55.9310   15.1082   47.3069 C   0  0  0  0  0  0  0  0  0  0  0  0
   53.7215   14.3717   46.8827 C   0  0  0  0  0  0  0  0  0  0  0  0
   54.2346   20.9259   48.7038 C   0  0  2  0  0  0  0  0  0  0  0  0
   53.6085   22.1132   49.3777 C   0  0  0  0  0  0  0  0  0  0  0  0
   54.4719   21.2934   47.2492 C   0  0  2  0  0  0  0  0  0  0  0  0
   49.6996   21.5176   50.0054 O   0  0  0  0  0  0  0  0  0  0  0  0
  2  3  1  6
  5  1  1  6
  2  5  1  0
  1  8  1  0
  8 11  2  0
 11 14  1  0
 14  6  1  1
  5 16  1  0
 17  6  1  6
  4 18  1  0
 17 19  1  0
 19  7  1  1
  4 20  1  6
 21 10  1  6
 19 21  1  0
 21 22  1  0
  4 23  2  0
 22 24  2  0
 17 24  1  0
 11 26  1  0
  9 27  1  0
 26 27  2  0
  1 27  1  0
 12 28  1  0
 15 28  1  0
  9 28  2  0
 15 29  1  0
 13 29  2  0
 26 29  1  0
 30 16  1  6
 30 31  1  0
 31 18  1  6
 32 25  1  1
 30 32  1  0
  2 32  1  0
  4 33  1  0
M  END
$$$$
