7BMI_U4B_A_802
     RDKit          3D

 17 17  0  0  0  0  0  0  0  0999 V2000
   60.3249   21.9363   16.8143 C   0  0  0  0  0  0  0  0  0  0  0  0
   58.8976   21.5457   16.9292 C   0  0  0  0  0  0  0  0  0  0  0  0
   57.9012   22.3714   16.3824 C   0  0  0  0  0  0  0  0  0  0  0  0
   56.5608   22.0057   16.4897 C   0  0  0  0  0  0  0  0  0  0  0  0
   57.1439   20.0214   17.6667 C   0  0  0  0  0  0  0  0  0  0  0  0
   56.6808   18.7886   18.3355 C   0  0  0  0  0  0  0  0  0  0  0  0
   58.5110   20.3551   17.5798 C   0  0  0  0  0  0  0  0  0  0  0  0
   59.4481   19.5340   18.1196 F   0  0  0  0  0  0  0  0  0  0  0  0
   56.2168   20.8549   17.1206 N   0  0  0  0  0  0  0  0  0  0  0  0
   61.3286   21.1329   17.3490 O   0  0  0  0  0  0  0  0  0  0  0  0
   60.6456   23.0057   16.2281 O   0  0  0  0  0  0  0  0  0  0  0  0
   56.5570   17.7259   17.6688 O   0  0  0  0  0  0  0  0  0  0  0  0
   56.3776   18.7794   19.6942 O   0  0  0  0  0  0  0  0  0  0  0  0
   58.1540   23.2939   15.8748 H   0  0  0  0  0  0  0  0  0  0  0  0
   55.7906   22.6389   16.0698 H   0  0  0  0  0  0  0  0  0  0  0  0
   62.3035   21.3971   17.2722 H   0  0  0  0  0  0  0  0  0  0  0  0
   57.0874   18.5652   20.3846 H   0  0  0  0  0  0  0  0  0  0  0  0
  1  2  1  0
  2  3  2  0
  3  4  1  0
  5  6  1  0
  2  7  1  0
  5  7  2  0
  7  8  1  0
  4  9  2  0
  5  9  1  0
  1 10  1  0
  1 11  2  0
  6 12  2  0
  6 13  1  0
  3 14  1  0
  4 15  1  0
 10 16  1  0
 13 17  1  0
M  END
