7D6O_MTE_B_1403
     RDKit          3D

 38 40  0  0  0  0  0  0  0  0999 V2000
    2.4302   -2.2514    2.3560 N   0  0  0  0  0  0  0  0  0  0  0  0
    2.1821   -3.2244    3.2722 C   0  0  0  0  0  0  0  0  0  0  0  0
    3.1142   -3.4562    4.3283 N   0  0  0  0  0  0  0  0  0  0  0  0
    1.0481   -3.9743    3.1777 N   0  0  0  0  0  0  0  0  0  0  0  0
    0.1490   -3.7580    2.1784 C   0  0  0  0  0  0  0  0  0  0  0  0
   -0.8972   -4.4583    2.1150 O   0  0  0  0  0  0  0  0  0  0  0  0
   -0.5334   -2.4670    0.1733 N   0  0  0  0  0  0  0  0  0  0  0  0
   -0.4089   -1.2600   -0.6497 C   0  0  2  0  0  0  0  0  0  0  0  0
    1.0849   -0.8526   -0.8651 C   0  0  2  0  0  0  0  0  0  0  0  0
    1.8460   -0.9852    0.3814 N   0  0  0  0  0  0  0  0  0  0  0  0
    0.3906   -2.7533    1.2310 C   0  0  0  0  0  0  0  0  0  0  0  0
    1.5634   -2.0085    1.3390 C   0  0  0  0  0  0  0  0  0  0  0  0
   -1.1544   -0.0914   -0.0537 C   0  0  0  0  0  0  0  0  0  0  0  0
   -2.3105   -0.3209    1.3135 S   0  0  0  0  0  0  0  0  0  0  0  0
   -0.9070    1.1197   -0.5831 C   0  0  0  0  0  0  0  0  0  0  0  0
   -1.7031    2.6048    0.0724 S   0  0  0  0  0  0  0  0  0  0  0  0
    0.1043    1.1679   -1.7260 C   0  0  2  0  0  0  0  0  0  0  0  0
    1.2908    0.4726   -1.3686 O   0  0  0  0  0  0  0  0  0  0  0  0
    0.4874    2.5915   -2.1486 C   0  0  0  0  0  0  0  0  0  0  0  0
   -0.6204    3.2223   -2.7491 O   0  0  0  0  0  0  0  0  0  0  0  0
   -0.1972    4.8368   -3.1003 P   0  0  0  0  0  5  0  0  0  0  0  0
    0.0228    5.6025   -1.8150 O   0  0  0  0  0  0  0  0  0  0  0  0
   -1.4605    5.5619   -3.9607 O   0  0  0  0  0  0  0  0  0  0  0  0
    1.2133    4.8896   -4.0356 O   0  0  0  0  0  0  0  0  0  0  0  0
    3.9831   -2.8817    4.3996 H   0  0  0  0  0  0  0  0  0  0  0  0
    2.9401   -4.1997    5.0404 H   0  0  0  0  0  0  0  0  0  0  0  0
    0.8625   -4.7230    3.8834 H   0  0  0  0  0  0  0  0  0  0  0  0
   -1.3863   -3.0590    0.0530 H   0  0  0  0  0  0  0  0  0  0  0  0
   -0.8573   -1.4771   -1.6448 H   0  0  0  0  0  0  0  0  0  0  0  0
    1.5195   -1.5642   -1.5997 H   0  0  0  0  0  0  0  0  0  0  0  0
    2.7000   -0.3980    0.5160 H   0  0  0  0  0  0  0  0  0  0  0  0
   -1.2923   -0.1473    2.2697 H   0  0  0  0  0  0  0  0  0  0  0  0
   -0.6700    2.8094    1.0059 H   0  0  0  0  0  0  0  0  0  0  0  0
   -0.3422    0.6737   -2.6192 H   0  0  0  0  0  0  0  0  0  0  0  0
    1.3212    2.5171   -2.8830 H   0  0  0  0  0  0  0  0  0  0  0  0
    0.8474    3.1478   -1.2524 H   0  0  0  0  0  0  0  0  0  0  0  0
   -1.5978    4.9763   -4.7474 H   0  0  0  0  0  0  0  0  0  0  0  0
    0.9980    4.3625   -4.8460 H   0  0  0  0  0  0  0  0  0  0  0  0
  1  2  2  0
  2  3  1  0
  2  4  1  0
  4  5  1  0
  5  6  2  0
  8  7  1  0
  8  9  1  0
  9 10  1  0
  5 11  1  0
  7 11  1  0
  1 12  1  0
 10 12  1  0
 11 12  2  0
  8 13  1  0
 13 14  1  0
 13 15  2  0
 15 16  1  0
 15 17  1  0
  9 18  1  0
 17 18  1  0
 17 19  1  0
 19 20  1  0
 20 21  1  0
 21 22  2  0
 21 23  1  0
 21 24  1  0
  3 25  1  0
  3 26  1  0
  4 27  1  0
  7 28  1  0
  8 29  1  6
  9 30  1  6
 10 31  1  0
 14 32  1  0
 16 33  1  0
 17 34  1  6
 19 35  1  0
 19 36  1  0
 23 37  1  0
 24 38  1  0
M  END
