8EAD_UY0_A_202
     RDKit          3D

 73 76  0  0  0  0  0  0  0  0999 V2000
   -2.4719   -0.6512   -1.8845 C   0  0  0  0  0  0  0  0  0  0  0  0
   -4.3256   -0.0101    1.3422 C   0  0  0  0  0  0  0  0  0  0  0  0
   -4.9114   -1.2964    3.3155 C   0  0  0  0  0  0  0  0  0  0  0  0
   -4.4893   -3.5195    2.4810 C   0  0  0  0  0  0  0  0  0  0  0  0
   -1.8424   -1.6537   -4.0077 C   0  0  0  0  0  0  0  0  0  0  0  0
    3.5210   -0.6327   -3.6940 C   0  0  0  0  0  0  0  0  0  0  0  0
    3.3607   -1.3836   -1.3194 C   0  0  0  0  0  0  0  0  0  0  0  0
    2.1953   -3.3407   -0.4814 C   0  0  0  0  0  0  0  0  0  0  0  0
    5.7880   -0.0476   -4.6888 C   0  0  0  0  0  0  0  0  0  0  0  0
    4.3134   -0.3093   -4.8132 C   0  0  0  0  0  0  0  0  0  0  0  0
    3.6835   -0.2432   -6.0660 C   0  0  0  0  0  0  0  0  0  0  0  0
    1.5938   -0.7383   -5.0791 C   0  0  0  0  0  0  0  0  0  0  0  0
   -0.7189   -0.8188   -4.0856 C   0  0  0  0  0  0  0  0  0  0  0  0
   -0.5035    0.1343   -3.0746 C   0  0  0  0  0  0  0  0  0  0  0  0
   -1.3665    0.2136   -1.9806 C   0  0  0  0  0  0  0  0  0  0  0  0
   -3.2250    0.2652    0.3155 C   0  0  0  0  0  0  0  0  0  0  0  0
   -4.9072   -2.7571    3.7283 C   0  0  0  0  0  0  0  0  0  0  0  0
   -4.1196   -2.4547    1.4551 C   0  0  0  0  0  0  0  0  0  0  0  0
   -2.7065   -1.5754   -2.9096 C   0  0  0  0  0  0  0  0  0  0  0  0
    2.9280   -2.7075   -1.4871 C   0  0  0  0  0  0  0  0  0  0  0  0
    1.8756   -2.6569    0.6961 C   0  0  0  0  0  0  0  0  0  0  0  0
    2.2966   -1.3253    0.8710 C   0  0  0  0  0  0  0  0  0  0  0  0
    2.0524    2.1808    2.8717 C   0  0  0  0  0  0  0  0  0  0  0  0
    1.3481    3.5398    2.7246 C   0  0  0  0  0  0  0  0  0  0  0  0
    2.1216    1.7948    4.3594 C   0  0  0  0  0  0  0  0  0  0  0  0
    3.4758    2.2704    2.2957 C   0  0  0  0  0  0  0  0  0  0  0  0
    3.0548   -0.7022   -0.1356 C   0  0  0  0  0  0  0  0  0  0  0  0
    2.3459   -0.4585   -6.1743 N   0  0  0  0  0  0  0  0  0  0  0  0
    0.1783   -0.9274   -5.2045 N   0  0  0  0  0  0  0  0  0  0  0  0
   -3.9962   -1.1828    2.1775 N   0  0  0  0  0  0  0  0  0  0  0  0
    2.1898   -0.8384   -3.8646 N   0  0  0  0  0  0  0  0  0  0  0  0
    4.0729   -0.7180   -2.3707 N   0  0  0  0  0  0  0  0  0  0  0  0
    1.9365   -0.5993    2.0541 N   0  0  0  0  0  0  0  0  0  0  0  0
   -3.3536   -0.6203   -0.7942 O   0  0  0  0  0  0  0  0  0  0  0  0
   -0.2456    0.7773    2.5822 O   0  0  0  0  0  0  0  0  0  0  0  0
    0.9604    1.3517    0.5404 O   0  0  0  0  0  0  0  0  0  0  0  0
    1.1201    0.9297    1.9743 S   0  0  0  0  0  6  0  0  0  0  0  0
    0.8921   -3.4709    1.9060 Cl  0  0  0  0  0  0  0  0  0  0  0  0
   -4.4002    0.8895    1.9942 H   0  0  0  0  0  0  0  0  0  0  0  0
   -5.3076   -0.1328    0.8307 H   0  0  0  0  0  0  0  0  0  0  0  0
   -4.5677   -0.6491    4.1517 H   0  0  0  0  0  0  0  0  0  0  0  0
   -5.9504   -1.0057    3.0296 H   0  0  0  0  0  0  0  0  0  0  0  0
   -5.3248   -4.1506    2.1051 H   0  0  0  0  0  0  0  0  0  0  0  0
   -3.6132   -4.1685    2.7031 H   0  0  0  0  0  0  0  0  0  0  0  0
   -2.0353   -2.3809   -4.7860 H   0  0  0  0  0  0  0  0  0  0  0  0
    1.8577   -4.3578   -0.6279 H   0  0  0  0  0  0  0  0  0  0  0  0
    6.2926   -0.9324   -4.2463 H   0  0  0  0  0  0  0  0  0  0  0  0
    6.2441    0.1669   -5.6760 H   0  0  0  0  0  0  0  0  0  0  0  0
    5.9561    0.8383   -4.0398 H   0  0  0  0  0  0  0  0  0  0  0  0
    4.2522   -0.0124   -6.9575 H   0  0  0  0  0  0  0  0  0  0  0  0
    0.3245    0.8280   -3.1361 H   0  0  0  0  0  0  0  0  0  0  0  0
   -1.1688    0.9547   -1.2198 H   0  0  0  0  0  0  0  0  0  0  0  0
   -2.2297    0.1354    0.7925 H   0  0  0  0  0  0  0  0  0  0  0  0
   -3.3196    1.3125   -0.0434 H   0  0  0  0  0  0  0  0  0  0  0  0
   -4.1629   -2.9165    4.5397 H   0  0  0  0  0  0  0  0  0  0  0  0
   -5.9116   -3.0763    4.0830 H   0  0  0  0  0  0  0  0  0  0  0  0
   -4.9152   -2.4092    0.6762 H   0  0  0  0  0  0  0  0  0  0  0  0
   -3.1526   -2.7054    0.9682 H   0  0  0  0  0  0  0  0  0  0  0  0
   -3.5590   -2.2408   -2.8512 H   0  0  0  0  0  0  0  0  0  0  0  0
    3.1582   -3.2454   -2.3986 H   0  0  0  0  0  0  0  0  0  0  0  0
    0.3047    3.4814    3.0951 H   0  0  0  0  0  0  0  0  0  0  0  0
    1.8834    4.3234    3.3029 H   0  0  0  0  0  0  0  0  0  0  0  0
    1.3223    3.8499    1.6595 H   0  0  0  0  0  0  0  0  0  0  0  0
    2.6257    0.8129    4.4863 H   0  0  0  0  0  0  0  0  0  0  0  0
    1.1007    1.7232    4.7944 H   0  0  0  0  0  0  0  0  0  0  0  0
    2.6947    2.5539    4.9359 H   0  0  0  0  0  0  0  0  0  0  0  0
    4.0608    3.0566    2.8191 H   0  0  0  0  0  0  0  0  0  0  0  0
    4.0071    1.3038    2.4170 H   0  0  0  0  0  0  0  0  0  0  0  0
    3.4474    2.5240    1.2147 H   0  0  0  0  0  0  0  0  0  0  0  0
    3.3780    0.3250   -0.0157 H   0  0  0  0  0  0  0  0  0  0  0  0
   -0.2053   -1.2057   -6.1359 H   0  0  0  0  0  0  0  0  0  0  0  0
    4.9052   -0.1399   -2.1171 H   0  0  0  0  0  0  0  0  0  0  0  0
    1.9149   -1.0990    2.9691 H   0  0  0  0  0  0  0  0  0  0  0  0
  6 10  2  0
  9 10  1  0
 10 11  1  0
  5 13  2  0
 13 14  1  0
  1 15  1  0
 14 15  2  0
  2 16  1  0
  4 17  1  0
  3 17  1  0
  4 18  1  0
  1 19  2  0
  5 19  1  0
  7 20  1  0
  8 20  2  0
  8 21  1  0
 21 22  2  0
 23 24  1  0
 23 25  1  0
 23 26  1  0
 22 27  1  0
  7 27  2  0
 12 28  1  0
 11 28  2  0
 13 29  1  0
 12 29  1  0
  2 30  1  0
 18 30  1  0
  3 30  1  0
 12 31  2  0
  6 31  1  0
  7 32  1  0
  6 32  1  0
 22 33  1  0
 16 34  1  0
  1 34  1  0
 36 37  2  0
 23 37  1  0
 35 37  2  0
 33 37  1  0
 21 38  1  0
  2 39  1  0
  2 40  1  0
  3 41  1  0
  3 42  1  0
  4 43  1  0
  4 44  1  0
  5 45  1  0
  8 46  1  0
  9 47  1  0
  9 48  1  0
  9 49  1  0
 11 50  1  0
 14 51  1  0
 15 52  1  0
 16 53  1  0
 16 54  1  0
 17 55  1  0
 17 56  1  0
 18 57  1  0
 18 58  1  0
 19 59  1  0
 20 60  1  0
 24 61  1  0
 24 62  1  0
 24 63  1  0
 25 64  1  0
 25 65  1  0
 25 66  1  0
 26 67  1  0
 26 68  1  0
 26 69  1  0
 27 70  1  0
 29 71  1  0
 32 72  1  0
 33 73  1  0
M  END
