1OYT_FSN_H_501
     RDKit          3D

 30 34  0  0  0  0  0  0  0  0999 V2000
   16.8287  -11.9043   23.0098 O   0  0  0  0  0  0  0  0  0  0  0  0
   17.3981  -12.0635   21.8734 C   0  0  0  0  0  0  0  0  0  0  0  0
   18.2759  -13.1451   21.5879 N   0  0  0  0  0  0  0  0  0  0  0  0
   18.4346  -14.4195   22.2338 C   0  0  0  0  0  0  0  0  0  0  0  0
   19.5257  -14.4391   23.2466 C   0  0  0  0  0  0  0  0  0  0  0  0
   20.2568  -13.3097   23.5139 C   0  0  0  0  0  0  0  0  0  0  0  0
   21.2567  -13.3917   24.4649 C   0  0  0  0  0  0  0  0  0  0  0  0
   21.5454  -14.5547   25.1495 C   0  0  0  0  0  0  0  0  0  0  0  0
   22.5141  -14.6342   26.0708 F   0  0  0  0  0  0  0  0  0  0  0  0
   20.7792  -15.6861   24.8506 C   0  0  0  0  0  0  0  0  0  0  0  0
   19.7719  -15.6249   23.9003 C   0  0  0  0  0  0  0  0  0  0  0  0
   19.0348  -12.6934   20.4470 C   0  0  0  0  0  0  0  0  0  0  0  0
   20.2099  -13.0228   20.1230 O   0  0  0  0  0  0  0  0  0  0  0  0
   18.1721  -11.7469   19.6960 C   0  0  1  0  0  0  0  0  0  0  0  0
   17.2813  -12.4561   18.7151 C   0  0  1  0  0  0  0  0  0  0  0  0
   15.9716  -12.5405   19.3752 N   0  0  0  0  0  0  0  0  0  0  0  0
   15.0141  -12.6842   18.2983 C   0  0  0  0  0  0  0  0  0  0  0  0
   15.6824  -12.2377   17.0264 C   0  0  0  0  0  0  0  0  0  0  0  0
   17.0044  -11.6597   17.4664 C   0  0  0  0  0  0  0  0  0  0  0  0
   15.9048  -11.2801   20.0313 C   0  0  1  0  0  0  0  0  0  0  0  0
   14.7452  -11.1467   20.9392 C   0  0  0  0  0  0  0  0  0  0  0  0
   14.3948   -9.9638   21.5533 C   0  0  0  0  0  0  0  0  0  0  0  0
   13.2947   -9.8705   22.3926 C   0  0  0  0  0  0  0  0  0  0  0  0
   12.4996  -10.9581   22.6525 C   0  0  0  0  0  0  0  0  0  0  0  0
   12.8322  -12.1533   22.0484 C   0  0  0  0  0  0  0  0  0  0  0  0
   13.9266  -12.2403   21.2149 C   0  0  0  0  0  0  0  0  0  0  0  0
   11.3473  -10.8405   23.5377 C   0  0  0  0  0  0  0  0  0  0  0  0
   11.1697   -9.7403   24.2215 N   0  0  0  0  0  0  0  0  0  0  0  0
   10.3913  -11.8806   23.6961 N   0  0  0  0  0  0  0  0  0  0  0  0
   17.2411  -11.1763   20.7114 C   0  0  1  0  0  0  0  0  0  0  0  0
  1  2  2  0
  2  3  1  0
  3  4  1  0
  4  5  1  0
  5  6  2  0
  6  7  1  0
  7  8  2  0
  8  9  1  0
  8 10  1  0
  5 11  1  0
 10 11  2  0
  3 12  1  0
 12 13  2  0
 14 12  1  1
 14 15  1  0
 15 16  1  0
 16 17  1  0
 17 18  1  0
 15 19  1  6
 18 19  1  0
 16 20  1  0
 20 21  1  1
 21 22  2  0
 22 23  1  0
 23 24  2  0
 24 25  1  0
 21 26  1  0
 25 26  2  0
 24 27  1  0
 27 28  2  0
 27 29  1  0
 30  2  1  1
 14 30  1  0
 20 30  1  0
M  CHG  1  28   1
M  END
$$$$
