1OYT_FSN_H_501
     RDKit          3D

 30 34  0  0  0  0  0  0  0  0999 V2000
   16.8252  -12.0075   22.9144 O   0  0  0  0  0  0  0  0  0  0  0  0
   17.4060  -12.1466   21.7812 C   0  0  0  0  0  0  0  0  0  0  0  0
   18.3179  -13.2004   21.4986 N   0  0  0  0  0  0  0  0  0  0  0  0
   18.5113  -14.4710   22.1427 C   0  0  0  0  0  0  0  0  0  0  0  0
   19.5676  -14.4493   23.1917 C   0  0  0  0  0  0  0  0  0  0  0  0
   19.9144  -15.5937   23.8637 C   0  0  0  0  0  0  0  0  0  0  0  0
   20.9024  -15.5088   24.8267 C   0  0  0  0  0  0  0  0  0  0  0  0
   21.5476  -14.3285   25.1356 C   0  0  0  0  0  0  0  0  0  0  0  0
   22.5047  -14.2462   26.0685 F   0  0  0  0  0  0  0  0  0  0  0  0
   21.1676  -13.1821   24.4299 C   0  0  0  0  0  0  0  0  0  0  0  0
   20.1791  -13.2460   23.4604 C   0  0  0  0  0  0  0  0  0  0  0  0
   19.0696  -12.7231   20.3634 C   0  0  0  0  0  0  0  0  0  0  0  0
   20.2561  -13.0161   20.0459 O   0  0  0  0  0  0  0  0  0  0  0  0
   18.1832  -11.8015   19.6093 C   0  0  1  0  0  0  0  0  0  0  0  0
   17.3202  -12.5350   18.6214 C   0  0  1  0  0  0  0  0  0  0  0  0
   16.0096  -12.6606   19.2733 N   0  0  0  0  0  0  0  0  0  0  0  0
   15.0635  -12.8307   18.1904 C   0  0  0  0  0  0  0  0  0  0  0  0
   15.7255  -12.3611   16.9235 C   0  0  0  0  0  0  0  0  0  0  0  0
   17.0268  -11.7444   17.3728 C   0  0  0  0  0  0  0  0  0  0  0  0
   15.9008  -11.4044   19.9318 C   0  0  1  0  0  0  0  0  0  0  0  0
   14.7322  -11.3083   20.8330 C   0  0  0  0  0  0  0  0  0  0  0  0
   13.9333  -12.3836   21.1564 C   0  0  0  0  0  0  0  0  0  0  0  0
   12.8494  -12.2610   22.0128 C   0  0  0  0  0  0  0  0  0  0  0  0
   12.5199  -11.0564   22.5810 C   0  0  0  0  0  0  0  0  0  0  0  0
   13.3063   -9.9657   22.2707 C   0  0  0  0  0  0  0  0  0  0  0  0
   14.3826  -10.0933   21.4191 C   0  0  0  0  0  0  0  0  0  0  0  0
   11.3767  -10.9473   23.4790 C   0  0  0  0  0  0  0  0  0  0  0  0
   11.1675   -9.8286   24.1226 N   0  0  0  0  0  0  0  0  0  0  0  0
   10.4632  -12.0153   23.6924 N   0  0  0  0  0  0  0  0  0  0  0  0
   17.2292  -11.2618   20.6202 C   0  0  1  0  0  0  0  0  0  0  0  0
  1  2  2  0
  2  3  1  0
  3  4  1  0
  4  5  1  0
  5  6  2  0
  6  7  1  0
  7  8  2  0
  8  9  1  0
  8 10  1  0
  5 11  1  0
 10 11  2  0
  3 12  1  0
 12 13  2  0
 14 12  1  1
 14 15  1  0
 15 16  1  0
 16 17  1  0
 17 18  1  0
 15 19  1  6
 18 19  1  0
 16 20  1  0
 20 21  1  1
 21 22  2  0
 22 23  1  0
 23 24  2  0
 24 25  1  0
 21 26  1  0
 25 26  2  0
 24 27  1  0
 27 28  2  0
 27 29  1  0
 30  2  1  1
 14 30  1  0
 20 30  1  0
M  CHG  1  28   1
M  END
$$$$
