6YSP_PAL_C_401
     RDKit          3D

 16 15  0  0  0  0  0  0  0  0999 V2000
   -7.3276   24.6388  -29.4224 P   0  0  1  0  0  5  0  0  0  0  0  0
   -7.8101   26.0596  -29.1643 O   0  0  0  0  0  0  0  0  0  0  0  0
   -7.4446   24.3427  -31.0690 O   0  0  0  0  0  0  0  0  0  0  0  0
   -5.8026   24.4220  -28.7886 O   0  0  0  0  0  0  0  0  0  0  0  0
   -8.4993   23.5280  -28.5823 C   0  0  0  0  0  0  0  0  0  0  0  0
   -9.8510   24.0114  -28.5372 C   0  0  0  0  0  0  0  0  0  0  0  0
  -10.6061   23.5665  -29.5459 O   0  0  0  0  0  0  0  0  0  0  0  0
  -10.5341   24.8394  -27.6495 N   0  0  0  0  0  0  0  0  0  0  0  0
  -11.8493   25.3902  -27.7164 C   0  0  2  0  0  0  0  0  0  0  0  0
  -12.1419   26.3713  -28.7739 C   0  0  0  0  0  0  0  0  0  0  0  0
  -11.0854   26.9348  -29.2736 O   0  0  0  0  0  0  0  0  0  0  0  0
  -13.3130   26.7925  -29.3038 O   0  0  0  0  0  0  0  0  0  0  0  0
  -12.4722   25.7257  -26.3916 C   0  0  0  0  0  0  0  0  0  0  0  0
  -11.7823   26.8319  -25.7358 C   0  0  0  0  0  0  0  0  0  0  0  0
  -10.7768   27.3835  -26.2933 O   0  0  0  0  0  0  0  0  0  0  0  0
  -12.1394   27.3543  -24.5141 O   0  0  0  0  0  0  0  0  0  0  0  0
  1  2  2  0
  1  3  1  6
  1  4  1  0
  1  5  1  0
  5  6  1  6
  6  7  2  0
  6  8  1  0
  9  8  1  1
  9 10  1  0
 10 11  2  0
 10 12  1  0
  9 13  1  0
 13 14  1  1
 14 15  2  0
 14 16  1  0
M  END
$$$$
