1TZ8_DES_B_128
     RDKit          3D

 40 41  0  0  0  0  0  0  0  0999 V2000
   -2.7675    0.4736    0.8928 C   0  0  0  0  0  0  0  0  0  0  0  0
   -1.4429    1.0014    0.3498 C   0  0  0  0  0  0  0  0  0  0  0  0
   -0.3525   -0.0444    0.4661 C   0  0  0  0  0  0  0  0  0  0  0  0
    0.4507   -0.0177    1.7073 C   0  0  0  0  0  0  0  0  0  0  0  0
    1.4798    0.9230    1.8568 C   0  0  0  0  0  0  0  0  0  0  0  0
    2.2264    0.9658    3.0381 C   0  0  0  0  0  0  0  0  0  0  0  0
    1.9412    0.0762    4.0836 C   0  0  0  0  0  0  0  0  0  0  0  0
    2.6785    0.1089    5.2649 O   0  0  0  0  0  0  0  0  0  0  0  0
    0.9046   -0.8527    3.9416 C   0  0  0  0  0  0  0  0  0  0  0  0
    0.1573   -0.8972    2.7609 C   0  0  0  0  0  0  0  0  0  0  0  0
   -0.1683   -1.0112   -0.4738 C   0  0  0  0  0  0  0  0  0  0  0  0
   -0.9715   -1.0378   -1.7150 C   0  0  0  0  0  0  0  0  0  0  0  0
   -0.6782   -0.1582   -2.7685 C   0  0  0  0  0  0  0  0  0  0  0  0
   -1.4254   -0.2027   -3.9492 C   0  0  0  0  0  0  0  0  0  0  0  0
   -2.4637   -1.1342   -4.0901 C   0  0  0  0  0  0  0  0  0  0  0  0
   -3.2159   -1.1875   -5.2613 O   0  0  0  0  0  0  0  0  0  0  0  0
   -2.7470   -2.0215   -3.0461 C   0  0  0  0  0  0  0  0  0  0  0  0
   -2.0005   -1.9787   -1.8647 C   0  0  0  0  0  0  0  0  0  0  0  0
    0.9221   -2.0570   -0.3575 C   0  0  0  0  0  0  0  0  0  0  0  0
    2.2466   -1.5292   -0.9006 C   0  0  0  0  0  0  0  0  0  0  0  0
   -2.6611    0.1933    1.9624 H   0  0  0  0  0  0  0  0  0  0  0  0
   -3.1009   -0.4132    0.3148 H   0  0  0  0  0  0  0  0  0  0  0  0
   -3.5440    1.2626    0.8087 H   0  0  0  0  0  0  0  0  0  0  0  0
   -1.1589    1.9059    0.9308 H   0  0  0  0  0  0  0  0  0  0  0  0
   -1.5774    1.3380   -0.6984 H   0  0  0  0  0  0  0  0  0  0  0  0
    1.7062    1.6173    1.0568 H   0  0  0  0  0  0  0  0  0  0  0  0
    3.0236    1.6909    3.1410 H   0  0  0  0  0  0  0  0  0  0  0  0
    3.4348    0.7699    5.3988 H   0  0  0  0  0  0  0  0  0  0  0  0
    0.6769   -1.5385    4.7476 H   0  0  0  0  0  0  0  0  0  0  0  0
   -0.6465   -1.6168    2.6645 H   0  0  0  0  0  0  0  0  0  0  0  0
    0.1256    0.5614   -2.6719 H   0  0  0  0  0  0  0  0  0  0  0  0
   -1.1958    0.4843   -4.7537 H   0  0  0  0  0  0  0  0  0  0  0  0
   -3.0352   -0.5592   -6.0355 H   0  0  0  0  0  0  0  0  0  0  0  0
   -3.5446   -2.7458   -3.1514 H   0  0  0  0  0  0  0  0  0  0  0  0
   -2.2268   -2.6731   -1.0647 H   0  0  0  0  0  0  0  0  0  0  0  0
    0.6381   -2.9615   -0.9384 H   0  0  0  0  0  0  0  0  0  0  0  0
    1.0566   -2.3935    0.6907 H   0  0  0  0  0  0  0  0  0  0  0  0
    2.1402   -1.2490   -1.9702 H   0  0  0  0  0  0  0  0  0  0  0  0
    3.0232   -2.3182   -0.8164 H   0  0  0  0  0  0  0  0  0  0  0  0
    2.5800   -0.6424   -0.3226 H   0  0  0  0  0  0  0  0  0  0  0  0
  1  2  1  0
  2  3  1  0
  3  4  1  0
  4  5  2  0
  5  6  1  0
  6  7  2  0
  7  8  1  0
  7  9  1  0
  4 10  1  0
  9 10  2  0
  3 11  2  0
 11 12  1  0
 12 13  2  0
 13 14  1  0
 14 15  2  0
 15 16  1  0
 15 17  1  0
 12 18  1  0
 17 18  2  0
 11 19  1  0
 19 20  1  0
  1 21  1  0
  1 22  1  0
  1 23  1  0
  2 24  1  0
  2 25  1  0
  5 26  1  0
  6 27  1  0
  8 28  1  0
  9 29  1  0
 10 30  1  0
 13 31  1  0
 14 32  1  0
 16 33  1  0
 17 34  1  0
 18 35  1  0
 19 36  1  0
 19 37  1  0
 20 38  1  0
 20 39  1  0
 20 40  1  0
M  END
