1TZ8_DES_B_128
     RDKit          3D

 20 21  0  0  0  0  0  0  0  0999 V2000
   15.8960   63.5110   37.0920 C   0  0  0  0  0  0  0  0  0  0  0  0
   15.5990   62.2330   36.3390 C   0  0  0  0  0  0  0  0  0  0  0  0
   16.7550   61.8740   35.4350 C   0  0  0  0  0  0  0  0  0  0  0  0
   18.1270   61.7880   36.0280 C   0  0  0  0  0  0  0  0  0  0  0  0
   18.5620   60.5690   36.5240 C   0  0  0  0  0  0  0  0  0  0  0  0
   19.8120   60.4670   37.1070 C   0  0  0  0  0  0  0  0  0  0  0  0
   20.6290   61.5750   37.1920 C   0  0  0  0  0  0  0  0  0  0  0  0
   21.8580   61.4390   37.7810 O   0  0  0  0  0  0  0  0  0  0  0  0
   20.1980   62.8080   36.7100 C   0  0  0  0  0  0  0  0  0  0  0  0
   18.9360   62.9190   36.1260 C   0  0  0  0  0  0  0  0  0  0  0  0
   16.5290   61.6470   34.1530 C   0  0  0  0  0  0  0  0  0  0  0  0
   15.1150   61.7390   33.6570 C   0  0  0  0  0  0  0  0  0  0  0  0
   14.7630   62.4820   32.5310 C   0  0  0  0  0  0  0  0  0  0  0  0
   13.4230   62.5160   32.1200 C   0  0  0  0  0  0  0  0  0  0  0  0
   12.4470   61.8160   32.8340 C   0  0  0  0  0  0  0  0  0  0  0  0
   11.1180   61.8350   32.4560 O   0  0  0  0  0  0  0  0  0  0  0  0
   12.8100   61.0840   33.9530 C   0  0  0  0  0  0  0  0  0  0  0  0
   14.1380   61.0480   34.3610 C   0  0  0  0  0  0  0  0  0  0  0  0
   17.6740   61.2560   33.2420 C   0  0  0  0  0  0  0  0  0  0  0  0
   17.8200   59.7470   33.3270 C   0  0  0  0  0  0  0  0  0  0  0  0
  1  2  1  0
  2  3  1  0
  3  4  1  0
  4  5  2  0
  5  6  1  0
  6  7  2  0
  7  8  1  0
  7  9  1  0
  4 10  1  0
  9 10  2  0
  3 11  2  0
 11 12  1  0
 12 13  2  0
 13 14  1  0
 14 15  2  0
 15 16  1  0
 15 17  1  0
 12 18  1  0
 17 18  2  0
 11 19  1  0
 19 20  1  0
M  END
$$$$
