1TZ8_DES_B_128
     RDKit          3D

 20 21  0  0  0  0  0  0  0  0999 V2000
   15.8960   63.5110   37.0920 C   0  0  0  0  0  0  0  0  0  0  0  0
   15.5990   62.2330   36.3390 C   0  0  0  0  0  0  0  0  0  0  0  0
   16.7550   61.8740   35.4350 C   0  0  0  0  0  0  0  0  0  0  0  0
   18.1270   61.7880   36.0280 C   0  0  0  0  0  0  0  0  0  0  0  0
   18.5620   60.5690   36.5240 C   0  0  0  0  0  0  0  0  0  0  0  0
   19.8120   60.4670   37.1070 C   0  0  0  0  0  0  0  0  0  0  0  0
   20.6290   61.5750   37.1920 C   0  0  0  0  0  0  0  0  0  0  0  0
   21.8580   61.4390   37.7810 O   0  0  0  0  0  0  0  0  0  0  0  0
   20.1980   62.8080   36.7100 C   0  0  0  0  0  0  0  0  0  0  0  0
   18.9360   62.9190   36.1260 C   0  0  0  0  0  0  0  0  0  0  0  0
   16.5290   61.6470   34.1530 C   0  0  0  0  0  0  0  0  0  0  0  0
   15.1150   61.7390   33.6570 C   0  0  0  0  0  0  0  0  0  0  0  0
   14.7630   62.4820   32.5310 C   0  0  0  0  0  0  0  0  0  0  0  0
   13.4230   62.5160   32.1200 C   0  0  0  0  0  0  0  0  0  0  0  0
   12.4470   61.8160   32.8340 C   0  0  0  0  0  0  0  0  0  0  0  0
   11.1180   61.8350   32.4560 O   0  0  0  0  0  0  0  0  0  0  0  0
   12.8100   61.0840   33.9530 C   0  0  0  0  0  0  0  0  0  0  0  0
   14.1380   61.0480   34.3610 C   0  0  0  0  0  0  0  0  0  0  0  0
   17.6740   61.2560   33.2420 C   0  0  0  0  0  0  0  0  0  0  0  0
   17.8200   59.7470   33.3270 C   0  0  0  0  0  0  0  0  0  0  0  0
  1  2  1  0
  2  3  1  0
  3  4  1  0
  4  5  2  0
  5  6  1  0
  6  7  2  0
  7  8  1  0
  7  9  1  0
  4 10  1  0
  9 10  2  0
  3 11  2  0
 11 12  1  0
 12 13  2  0
 13 14  1  0
 14 15  2  0
 15 16  1  0
 15 17  1  0
 12 18  1  0
 17 18  2  0
 11 19  1  0
 19 20  1  0
M  END
$$$$
1TZ8_DES_C_129
     RDKit          3D

 20 21  0  0  0  0  0  0  0  0999 V2000
   40.1640   52.2030    0.7870 C   0  0  0  0  0  0  0  0  0  0  0  0
   39.1730   51.4190   -0.0440 C   0  0  0  0  0  0  0  0  0  0  0  0
   37.7960   52.0230    0.0990 C   0  0  0  0  0  0  0  0  0  0  0  0
   37.6090   53.5180    0.0760 C   0  0  0  0  0  0  0  0  0  0  0  0
   37.2640   54.1600   -1.1090 C   0  0  0  0  0  0  0  0  0  0  0  0
   37.0890   55.5410   -1.1460 C   0  0  0  0  0  0  0  0  0  0  0  0
   37.2590   56.2890    0.0140 C   0  0  0  0  0  0  0  0  0  0  0  0
   37.0870   57.6470   -0.0170 O   0  0  0  0  0  0  0  0  0  0  0  0
   37.6030   55.6540    1.2040 C   0  0  0  0  0  0  0  0  0  0  0  0
   37.7810   54.2710    1.2330 C   0  0  0  0  0  0  0  0  0  0  0  0
   36.7440   51.2170    0.2390 C   0  0  0  0  0  0  0  0  0  0  0  0
   36.8900   49.7220    0.2640 C   0  0  0  0  0  0  0  0  0  0  0  0
   36.8500   49.0380    1.4740 C   0  0  0  0  0  0  0  0  0  0  0  0
   36.9760   47.6490    1.5060 C   0  0  0  0  0  0  0  0  0  0  0  0
   37.1390   46.9300    0.3280 C   0  0  0  0  0  0  0  0  0  0  0  0
   37.2630   45.5560    0.3550 O   0  0  0  0  0  0  0  0  0  0  0  0
   37.1740   47.6160   -0.8830 C   0  0  0  0  0  0  0  0  0  0  0  0
   37.0460   49.0020   -0.9160 C   0  0  0  0  0  0  0  0  0  0  0  0
   35.3690   51.8190    0.3810 C   0  0  0  0  0  0  0  0  0  0  0  0
   34.7700   52.0240   -0.9920 C   0  0  0  0  0  0  0  0  0  0  0  0
  1  2  1  0
  2  3  1  0
  3  4  1  0
  4  5  2  0
  5  6  1  0
  6  7  2  0
  7  8  1  0
  7  9  1  0
  4 10  1  0
  9 10  2  0
  3 11  2  0
 11 12  1  0
 12 13  2  0
 13 14  1  0
 14 15  2  0
 15 16  1  0
 15 17  1  0
 12 18  1  0
 17 18  2  0
 11 19  1  0
 19 20  1  0
M  END
$$$$
1TZ8_DES_D_128
     RDKit          3D

 20 21  0  0  0  0  0  0  0  0999 V2000
   38.5830   67.0310    2.4790 C   0  0  0  0  0  0  0  0  0  0  0  0
   37.3420   67.3440    1.6750 C   0  0  0  0  0  0  0  0  0  0  0  0
   37.4420   66.6950    0.3160 C   0  0  0  0  0  0  0  0  0  0  0  0
   37.3770   65.2010    0.2040 C   0  0  0  0  0  0  0  0  0  0  0  0
   36.1540   64.5980   -0.0630 C   0  0  0  0  0  0  0  0  0  0  0  0
   36.0650   63.2140   -0.1670 C   0  0  0  0  0  0  0  0  0  0  0  0
   37.2070   62.4400    0.0020 C   0  0  0  0  0  0  0  0  0  0  0  0
   37.1180   61.0790   -0.0990 O   0  0  0  0  0  0  0  0  0  0  0  0
   38.4350   63.0410    0.2740 C   0  0  0  0  0  0  0  0  0  0  0  0
   38.5190   64.4270    0.3750 C   0  0  0  0  0  0  0  0  0  0  0  0
   37.5770   67.4530   -0.7680 C   0  0  0  0  0  0  0  0  0  0  0  0
   37.6150   68.9430   -0.6240 C   0  0  0  0  0  0  0  0  0  0  0  0
   38.5520   69.7020   -1.3160 C   0  0  0  0  0  0  0  0  0  0  0  0
   38.5630   71.0860   -1.1660 C   0  0  0  0  0  0  0  0  0  0  0  0
   37.6360   71.7080   -0.3350 C   0  0  0  0  0  0  0  0  0  0  0  0
   37.6420   73.0750   -0.1870 O   0  0  0  0  0  0  0  0  0  0  0  0
   36.6970   70.9460    0.3510 C   0  0  0  0  0  0  0  0  0  0  0  0
   36.6890   69.5640    0.2060 C   0  0  0  0  0  0  0  0  0  0  0  0
   37.6640   66.8220   -2.1380 C   0  0  0  0  0  0  0  0  0  0  0  0
   36.2850   66.8690   -2.7610 C   0  0  0  0  0  0  0  0  0  0  0  0
  1  2  1  0
  2  3  1  0
  3  4  1  0
  4  5  2  0
  5  6  1  0
  6  7  2  0
  7  8  1  0
  7  9  1  0
  4 10  1  0
  9 10  2  0
  3 11  2  0
 11 12  1  0
 12 13  2  0
 13 14  1  0
 14 15  2  0
 15 16  1  0
 15 17  1  0
 12 18  1  0
 17 18  2  0
 11 19  1  0
 19 20  1  0
M  END
$$$$
