1GKC_NFH_A_1448
     RDKit          3D

 22 21  0  0  0  0  0  0  0  0999 V2000
   64.1339   29.4409  115.6940 C   0  0  0  0  0  0  0  0  0  0  0  0
   61.5098   30.4430  115.7546 N   0  0  0  0  0  0  0  0  0  0  0  0
   64.1281   30.1962  114.6855 O   0  0  0  0  0  0  0  0  0  0  0  0
   67.4822   29.5578  115.4674 C   0  0  0  0  0  0  0  0  0  0  0  0
   65.3445   29.5471  116.4824 N   0  0  0  0  0  0  0  0  0  0  0  0
   67.9519   28.5891  116.1324 O   0  0  0  0  0  0  0  0  0  0  0  0
   68.0426   29.7657  114.1785 N   0  0  0  0  0  0  0  0  0  0  0  0
   63.0517   28.5241  116.0790 C   0  0  2  0  0  0  0  0  0  0  0  0
   63.2568   27.0878  116.0327 C   0  0  0  0  0  0  0  0  0  0  0  0
   63.2329   26.1792  117.1673 C   0  0  1  0  0  0  0  0  0  0  0  0
   61.3793   31.0300  117.0293 C   0  0  0  0  0  0  0  0  0  0  0  0
   61.2859   30.2928  118.0706 O   0  0  0  0  0  0  0  0  0  0  0  0
   61.7558   29.0467  115.4809 C   0  0  0  0  0  0  0  0  0  0  0  0
   61.3968   31.2551  114.6514 O   0  0  0  0  0  0  0  0  0  0  0  0
   66.4002   30.4183  116.0296 C   0  0  1  0  0  0  0  0  0  0  0  0
   66.9729   31.0692  117.2954 C   0  0  1  0  0  0  0  0  0  0  0  0
   62.0633   26.1965  118.1122 C   0  0  0  0  0  0  0  0  0  0  0  0
   63.1474   24.7488  116.5505 C   0  0  0  0  0  0  0  0  0  0  0  0
   67.4057   29.9783  118.2580 C   0  0  0  0  0  0  0  0  0  0  0  0
   68.1792   31.9137  116.9894 C   0  0  0  0  0  0  0  0  0  0  0  0
   65.9156   31.9386  117.9191 C   0  0  0  0  0  0  0  0  0  0  0  0
   69.0578   28.9032  113.6033 C   0  0  0  0  0  0  0  0  0  0  0  0
  1  3  2  0
  1  5  1  0
  4  6  2  0
  4  7  1  0
  1  8  1  0
  8  9  1  6
  9 10  1  0
  2 11  1  0
 11 12  2  0
  8 13  1  0
  2 13  1  0
  2 14  1  0
  4 15  1  0
 15  5  1  1
 15 16  1  0
 10 17  1  1
 10 18  1  0
 16 19  1  1
 16 20  1  0
 16 21  1  0
  7 22  1  0
M  END
$$$$
