1GKC_NFH_A_1448
     RDKit          3D

 22 21  0  0  0  0  0  0  0  0999 V2000
   56.6540   37.4778  104.5416 C   0  0  0  0  0  0  0  0  0  0  0  0
   55.1495   35.5415  106.6583 N   0  0  0  0  0  0  0  0  0  0  0  0
   56.0823   38.5846  104.7301 O   0  0  0  0  0  0  0  0  0  0  0  0
   58.9546   39.3874  103.1934 C   0  0  0  0  0  0  0  0  0  0  0  0
   58.0965   37.5840  104.4630 N   0  0  0  0  0  0  0  0  0  0  0  0
   59.3683   38.6104  102.2843 O   0  0  0  0  0  0  0  0  0  0  0  0
   58.7442   40.7407  102.8158 N   0  0  0  0  0  0  0  0  0  0  0  0
   55.9770   36.1803  104.4063 C   0  0  2  0  0  0  0  0  0  0  0  0
   55.7297   35.6164  103.0917 C   0  0  0  0  0  0  0  0  0  0  0  0
   55.5520   34.2077  102.7804 C   0  0  1  0  0  0  0  0  0  0  0  0
   56.3914   34.9759  107.0110 C   0  0  0  0  0  0  0  0  0  0  0  0
   56.5766   34.5140  108.1895 O   0  0  0  0  0  0  0  0  0  0  0  0
   54.8190   36.1479  105.3903 C   0  0  0  0  0  0  0  0  0  0  0  0
   54.1412   35.5275  107.5925 O   0  0  0  0  0  0  0  0  0  0  0  0
   58.7096   38.8839  104.5768 C   0  0  1  0  0  0  0  0  0  0  0  0
   60.0886   38.6392  105.2033 C   0  0  1  0  0  0  0  0  0  0  0  0
   55.1429   33.7962  101.3930 C   0  0  0  0  0  0  0  0  0  0  0  0
   56.9698   33.5714  102.9168 C   0  0  0  0  0  0  0  0  0  0  0  0
   60.8436   37.6321  104.3551 C   0  0  0  0  0  0  0  0  0  0  0  0
   60.9078   39.8995  105.2542 C   0  0  0  0  0  0  0  0  0  0  0  0
   59.9042   38.1217  106.6037 C   0  0  0  0  0  0  0  0  0  0  0  0
   59.0636   41.2585  101.4985 C   0  0  0  0  0  0  0  0  0  0  0  0
  1  3  2  0
  1  5  1  0
  4  6  2  0
  4  7  1  0
  1  8  1  0
  8  9  1  6
  9 10  1  0
  2 11  1  0
 11 12  2  0
  8 13  1  0
  2 13  1  0
  2 14  1  0
  4 15  1  0
 15  5  1  6
 15 16  1  0
 10 17  1  6
 10 18  1  0
 16 19  1  6
 16 20  1  0
 16 21  1  0
  7 22  1  0
M  END
$$$$
