6M73_FNR_A_401
     RDKit          3D

 31 33  0  0  0  0  0  0  0  0999 V2000
   27.8490    9.3816   36.8269 C   0  0  0  0  0  0  0  0  0  0  0  0
   27.9739    9.5961   38.2318 N   0  0  0  0  0  0  0  0  0  0  0  0
   29.2976    9.6630   38.7489 C   0  0  0  0  0  0  0  0  0  0  0  0
   29.5118    9.8615   40.0419 N   0  0  0  0  0  0  0  0  0  0  0  0
   30.7736    9.9257   40.5212 C   0  0  0  0  0  0  0  0  0  0  0  0
   30.9628   10.1153   41.7564 O   0  0  0  0  0  0  0  0  0  0  0  0
   31.8635    9.7974   39.7481 N   0  0  0  0  0  0  0  0  0  0  0  0
   31.7051    9.5947   38.4289 C   0  0  0  0  0  0  0  0  0  0  0  0
   32.7015    9.4649   37.6406 O   0  0  0  0  0  0  0  0  0  0  0  0
   30.4188    9.5285   37.9346 C   0  0  0  0  0  0  0  0  0  0  0  0
   30.2796    9.3161   36.5359 N   0  0  0  0  0  0  0  0  0  0  0  0
   28.9713    9.2460   36.0035 C   0  0  0  0  0  0  0  0  0  0  0  0
   28.8562    9.0280   34.6442 C   0  0  0  0  0  0  0  0  0  0  0  0
   27.6210    8.9334   34.0396 C   0  0  0  0  0  0  0  0  0  0  0  0
   27.4404    8.7003   32.5830 C   0  0  0  0  0  0  0  0  0  0  0  0
   26.5145    9.0608   34.8222 C   0  0  0  0  0  0  0  0  0  0  0  0
   25.1595    8.9639   34.2062 C   0  0  0  0  0  0  0  0  0  0  0  0
   26.6306    9.2812   36.1950 C   0  0  0  0  0  0  0  0  0  0  0  0
   26.7894    9.7728   39.0476 C   0  0  0  0  0  0  0  0  0  0  0  0
   26.3858   11.1973   39.2147 C   0  0  2  0  0  0  0  0  0  0  0  0
   27.1215   11.8275   40.2531 O   0  0  0  0  0  0  0  0  0  0  0  0
   24.9551   11.4280   39.6319 C   0  0  2  0  0  0  0  0  0  0  0  0
   24.7877   10.5540   40.7488 O   0  0  0  0  0  0  0  0  0  0  0  0
   23.9565   10.9248   38.6324 C   0  0  2  0  0  0  0  0  0  0  0  0
   24.3832   10.8545   37.3365 O   0  0  0  0  0  0  0  0  0  0  0  0
   22.6953   11.7627   38.6426 C   0  0  0  0  0  0  0  0  0  0  0  0
   21.7848   11.3322   37.6782 O   0  0  0  0  0  0  0  0  0  0  0  0
   20.4422   12.3553   37.6119 P   0  0  2  0  0  0  0  0  0  0  0  0
   19.2866   11.7906   36.5464 O   0  0  0  0  0  0  0  0  0  0  0  0
   20.9396   13.6960   37.1358 O   0  0  0  0  0  0  0  0  0  0  0  0
   19.8359   12.5130   39.1868 O   0  0  0  0  0  0  0  0  0  0  0  0
  1  2  1  0
  2  3  1  0
  3  4  1  0
  4  5  1  0
  5  6  2  0
  5  7  1  0
  7  8  1  0
  8  9  2  0
  3 10  2  0
  8 10  1  0
 10 11  1  0
  1 12  2  0
 11 12  1  0
 12 13  1  0
 13 14  2  0
 14 15  1  0
 14 16  1  0
 16 17  1  0
  1 18  1  0
 16 18  2  0
  2 19  1  0
 19 20  1  0
 20 21  1  1
 20 22  1  0
 22 23  1  1
 22 24  1  0
 24 25  1  6
 24 26  1  0
 26 27  1  0
 27 28  1  0
 28 29  1  6
 28 30  2  0
 28 31  1  0
M  END
$$$$
