7WN5_JGL_A_501
     RDKit          3D

 57 61  0  0  0  0  0  0  0  0999 V2000
    1.5109   -1.6071    3.3423 F   0  0  0  0  0  0  0  0  0  0  0  0
    2.3325   -0.6481    3.8381 C   0  0  0  0  0  0  0  0  0  0  0  0
    2.8028   -0.7659    5.1505 C   0  0  0  0  0  0  0  0  0  0  0  0
    3.6010    0.2396    5.7037 C   0  0  0  0  0  0  0  0  0  0  0  0
    4.0532    0.1231    6.9765 F   0  0  0  0  0  0  0  0  0  0  0  0
    3.9219    1.3710    4.9486 C   0  0  0  0  0  0  0  0  0  0  0  0
    3.4538    1.4932    3.6370 C   0  0  0  0  0  0  0  0  0  0  0  0
    2.6746    0.4798    3.0654 C   0  0  0  0  0  0  0  0  0  0  0  0
    2.2194    0.6445    1.7501 O   0  0  0  0  0  0  0  0  0  0  0  0
    2.1355   -0.3734    0.7863 C   0  0  0  0  0  0  0  0  0  0  0  0
    3.0131   -1.4706    0.8091 C   0  0  0  0  0  0  0  0  0  0  0  0
    2.9107   -2.4799   -0.1493 C   0  0  0  0  0  0  0  0  0  0  0  0
    1.9487   -2.4057   -1.1656 C   0  0  0  0  0  0  0  0  0  0  0  0
    1.8633   -3.4741   -2.1264 N   0  0  0  0  0  0  0  0  0  0  0  0
    1.1882   -3.3287   -3.7222 S   0  0  0  0  0  6  0  0  0  0  0  0
    1.1672   -1.8925   -4.1658 O   0  0  0  0  0  0  0  0  0  0  0  0
    2.0567   -4.0993   -4.6758 O   0  0  0  0  0  0  0  0  0  0  0  0
   -0.4581   -4.0234   -3.7722 C   0  0  0  0  0  0  0  0  0  0  0  0
   -1.4131   -3.2820   -2.8473 C   0  0  0  0  0  0  0  0  0  0  0  0
    1.0770   -1.3044   -1.1956 C   0  0  0  0  0  0  0  0  0  0  0  0
    1.1703   -0.2828   -0.2354 C   0  0  0  0  0  0  0  0  0  0  0  0
    0.2353    0.8636   -0.3005 C   0  0  0  0  0  0  0  0  0  0  0  0
    0.6974    2.1984   -0.2911 C   0  0  0  0  0  0  0  0  0  0  0  0
   -0.1809    3.2582   -0.3721 N   0  0  0  0  0  0  0  0  0  0  0  0
    0.3429    4.6293   -0.3763 C   0  0  0  0  0  0  0  0  0  0  0  0
   -1.5352    3.0413   -0.4897 C   0  0  0  0  0  0  0  0  0  0  0  0
   -2.3450    4.0044   -0.5849 O   0  0  0  0  0  0  0  0  0  0  0  0
   -2.0013    1.7305   -0.5026 C   0  0  0  0  0  0  0  0  0  0  0  0
   -3.2748    1.2141   -0.5931 C   0  0  0  0  0  0  0  0  0  0  0  0
   -1.1425    0.6758   -0.4061 C   0  0  0  0  0  0  0  0  0  0  0  0
   -1.8050   -0.4561   -0.4216 O   0  0  0  0  0  0  0  0  0  0  0  0
   -3.0881   -0.1645   -0.5336 C   0  0  0  0  0  0  0  0  0  0  0  0
   -4.1502   -1.1785   -0.5800 C   0  0  0  0  0  0  0  0  0  0  0  0
   -3.9840   -2.5358   -0.4246 C   0  0  0  0  0  0  0  0  0  0  0  0
   -5.1835   -3.1418   -0.5286 N   0  0  0  0  0  0  0  0  0  0  0  0
   -6.0520   -2.1304   -0.7453 C   0  0  0  0  0  0  0  0  0  0  0  0
   -5.4535   -0.9251   -0.7799 N   0  0  0  0  0  0  0  0  0  0  0  0
    2.5388   -1.6325    5.7431 H   0  0  0  0  0  0  0  0  0  0  0  0
    4.5321    2.1546    5.3790 H   0  0  0  0  0  0  0  0  0  0  0  0
    3.7056    2.3728    3.0581 H   0  0  0  0  0  0  0  0  0  0  0  0
    3.7824   -1.5436    1.5667 H   0  0  0  0  0  0  0  0  0  0  0  0
    3.5933   -3.3194   -0.1061 H   0  0  0  0  0  0  0  0  0  0  0  0
    2.3612   -4.3689   -1.9197 H   0  0  0  0  0  0  0  0  0  0  0  0
   -0.4061   -5.0900   -3.4675 H   0  0  0  0  0  0  0  0  0  0  0  0
   -0.8404   -3.9721   -4.8136 H   0  0  0  0  0  0  0  0  0  0  0  0
   -2.4157   -3.7565   -2.8940 H   0  0  0  0  0  0  0  0  0  0  0  0
   -1.5125   -2.2221   -3.1625 H   0  0  0  0  0  0  0  0  0  0  0  0
   -1.0491   -3.3310   -1.7998 H   0  0  0  0  0  0  0  0  0  0  0  0
    0.3179   -1.2298   -1.9570 H   0  0  0  0  0  0  0  0  0  0  0  0
    1.7644    2.3815   -0.2354 H   0  0  0  0  0  0  0  0  0  0  0  0
    0.2275    5.0696   -1.3894 H   0  0  0  0  0  0  0  0  0  0  0  0
   -0.2106    5.2520    0.3590 H   0  0  0  0  0  0  0  0  0  0  0  0
    1.4186    4.6592   -0.0979 H   0  0  0  0  0  0  0  0  0  0  0  0
   -4.2049    1.7603   -0.6786 H   0  0  0  0  0  0  0  0  0  0  0  0
   -3.0531   -3.0545   -0.2391 H   0  0  0  0  0  0  0  0  0  0  0  0
   -7.1163   -2.2749   -0.8762 H   0  0  0  0  0  0  0  0  0  0  0  0
   -5.9129   -0.0003   -0.9333 H   0  0  0  0  0  0  0  0  0  0  0  0
  1  2  1  0
  2  3  2  0
  3  4  1  0
  4  5  1  0
  4  6  2  0
  6  7  1  0
  2  8  1  0
  7  8  2  0
  8  9  1  0
  9 10  1  0
 10 11  2  0
 11 12  1  0
 12 13  2  0
 13 14  1  0
 14 15  1  0
 15 16  2  0
 15 17  2  0
 15 18  1  0
 18 19  1  0
 13 20  1  0
 10 21  1  0
 20 21  2  0
 21 22  1  0
 22 23  2  0
 23 24  1  0
 24 25  1  0
 24 26  1  0
 26 27  2  0
 26 28  1  0
 28 29  1  0
 28 30  2  0
 22 30  1  0
 30 31  1  0
 29 32  2  0
 31 32  1  0
 32 33  1  0
 33 34  2  0
 34 35  1  0
 35 36  2  0
 36 37  1  0
 33 37  1  0
  3 38  1  0
  6 39  1  0
  7 40  1  0
 11 41  1  0
 12 42  1  0
 14 43  1  0
 18 44  1  0
 18 45  1  0
 19 46  1  0
 19 47  1  0
 19 48  1  0
 20 49  1  0
 23 50  1  0
 25 51  1  0
 25 52  1  0
 25 53  1  0
 29 54  1  0
 34 55  1  0
 36 56  1  0
 37 57  1  0
M  END
