1V48_HA1_A_290
     RDKit          3D

 22 23  0  0  0  0  0  0  0  0999 V2000
   74.2427   40.7378   52.7092 N   0  0  0  0  0  0  0  0  0  0  0  0
   75.5058   40.4762   53.2049 C   0  0  0  0  0  0  0  0  0  0  0  0
   76.4077   40.5990   52.2669 N   0  0  0  0  0  0  0  0  0  0  0  0
   75.7544   40.9484   51.1110 C   0  0  0  0  0  0  0  0  0  0  0  0
   76.2508   41.2102   49.7753 C   0  0  0  0  0  0  0  0  0  0  0  0
   77.4350   41.1695   49.3982 O   0  0  0  0  0  0  0  0  0  0  0  0
   75.2202   41.5460   48.8457 N   0  0  0  0  0  0  0  0  0  0  0  0
   73.8481   41.6183   49.1790 C   0  0  0  0  0  0  0  0  0  0  0  0
   72.9597   41.9516   48.1939 N   0  0  0  0  0  0  0  0  0  0  0  0
   73.3796   41.3675   50.4558 N   0  0  0  0  0  0  0  0  0  0  0  0
   74.3866   41.0402   51.3604 C   0  0  0  0  0  0  0  0  0  0  0  0
   73.1226   40.7415   53.5346 C   0  0  0  0  0  0  0  0  0  0  0  0
   72.4962   39.3260   53.6339 C   0  0  0  0  0  0  0  0  0  0  0  0
   71.1956   39.3870   54.4678 C   0  0  0  0  0  0  0  0  0  0  0  0
   71.4873   39.7338   55.9627 C   0  0  0  0  0  0  0  0  0  0  0  0
   70.3522   40.5993   56.5696 C   0  0  2  0  0  0  0  0  0  0  0  0
   70.0919   40.1657   57.8149 F   0  0  0  0  0  0  0  0  0  0  0  0
   69.2416   40.4600   55.8280 F   0  0  0  0  0  0  0  0  0  0  0  0
   70.7513   42.0667   56.5942 P   0  0  1  0  0  0  0  0  0  0  0  0
   72.1928   42.2251   56.2458 O   0  0  0  0  0  0  0  0  0  0  0  0
   69.9153   42.8219   55.6179 O   0  0  0  0  0  0  0  0  0  0  0  0
   70.5101   42.6223   57.9724 O   0  0  0  0  0  0  0  0  0  0  0  0
  1  2  1  0
  2  3  2  0
  3  4  1  0
  4  5  1  0
  5  6  2  0
  5  7  1  0
  7  8  1  0
  8  9  1  0
  8 10  2  0
  1 11  1  0
  4 11  2  0
 10 11  1  0
  1 12  1  0
 12 13  1  0
 13 14  1  0
 14 15  1  0
 15 16  1  0
 16 17  1  1
 16 18  1  0
 16 19  1  0
 19 20  1  6
 19 21  2  0
 19 22  1  0
M  END
