1XOQ_ROF_B_501
     RDKit          3D

 26 28  0  0  0  0  0  0  0  0999 V2000
   14.4459   27.8016   55.3228 O   0  0  0  0  0  0  0  0  0  0  0  0
   11.3795   33.6203   48.4114 C   0  0  0  0  0  0  0  0  0  0  0  0
   12.8675   33.6687   48.1609 C   0  0  0  0  0  0  0  0  0  0  0  0
   12.2951   32.4932   48.8027 C   0  0  1  0  0  0  0  0  0  0  0  0
   13.8256   28.7604   54.7810 C   0  0  0  0  0  0  0  0  0  0  0  0
   13.7634   28.8231   53.3260 C   0  0  0  0  0  0  0  0  0  0  0  0
   14.1474   27.7236   52.5988 C   0  0  0  0  0  0  0  0  0  0  0  0
   14.1144   27.7125   51.2248 C   0  0  0  0  0  0  0  0  0  0  0  0
   13.6892   28.8190   50.5262 C   0  0  0  0  0  0  0  0  0  0  0  0
   13.6136   28.9256   49.1704 O   0  0  0  0  0  0  0  0  0  0  0  0
   13.9580   27.9216   48.2851 C   0  0  2  0  0  0  0  0  0  0  0  0
   13.1540   26.8121   48.5782 F   0  0  0  0  0  0  0  0  0  0  0  0
   15.2946   27.5537   48.3725 F   0  0  0  0  0  0  0  0  0  0  0  0
   13.2793   29.9880   51.2411 C   0  0  0  0  0  0  0  0  0  0  0  0
   12.8834   31.0160   50.5970 O   0  0  0  0  0  0  0  0  0  0  0  0
   12.3811   32.1904   50.2792 C   0  0  0  0  0  0  0  0  0  0  0  0
   13.3389   29.9287   52.6354 C   0  0  0  0  0  0  0  0  0  0  0  0
   13.2341   29.7076   55.6418 N   0  0  0  0  0  0  0  0  0  0  0  0
   13.5534   29.6645   57.0145 C   0  0  0  0  0  0  0  0  0  0  0  0
   13.0587   28.7325   57.8913 C   0  0  0  0  0  0  0  0  0  0  0  0
   11.9608   27.5118   57.2872 Cl  0  0  0  0  0  0  0  0  0  0  0  0
   13.3968   28.7256   59.2288 C   0  0  0  0  0  0  0  0  0  0  0  0
   14.2442   29.6730   59.6793 N   0  0  0  0  0  0  0  0  0  0  0  0
   14.7628   30.6119   58.8753 C   0  0  0  0  0  0  0  0  0  0  0  0
   14.4231   30.6198   57.5286 C   0  0  0  0  0  0  0  0  0  0  0  0
   15.1144   31.8614   56.4866 Cl  0  0  0  0  0  0  0  0  0  0  0  0
  2  3  1  0
  2  4  1  0
  3  4  1  0
  1  5  2  0
  5  6  1  0
  6  7  2  0
  7  8  1  0
  8  9  2  0
  9 10  1  0
 10 11  1  0
 11 12  1  1
 11 13  1  0
  9 14  1  0
 14 15  1  0
  4 16  1  1
 15 16  1  0
  6 17  1  0
 14 17  2  0
  5 18  1  0
 18 19  1  0
 19 20  2  0
 20 21  1  0
 20 22  1  0
 22 23  2  0
 23 24  1  0
 19 25  1  0
 24 25  2  0
 25 26  1  0
M  END
$$$$
