1XOQ_ROF_B_501
     RDKit          3D

 26 28  0  0  0  0  0  0  0  0999 V2000
   21.5520   21.8340   95.8815 O   0  0  0  0  0  0  0  0  0  0  0  0
   24.6508   16.8720   99.2788 C   0  0  0  0  0  0  0  0  0  0  0  0
   26.0986   16.5159   99.5156 C   0  0  0  0  0  0  0  0  0  0  0  0
   25.3832   17.2823  100.5266 C   0  0  1  0  0  0  0  0  0  0  0  0
   22.1193   20.8601   96.4536 C   0  0  0  0  0  0  0  0  0  0  0  0
   22.4355   20.9672   97.8726 C   0  0  0  0  0  0  0  0  0  0  0  0
   21.8015   21.9274   98.6216 C   0  0  0  0  0  0  0  0  0  0  0  0
   22.0508   22.0849   99.9641 C   0  0  0  0  0  0  0  0  0  0  0  0
   22.9566   21.2731  100.6074 C   0  0  0  0  0  0  0  0  0  0  0  0
   23.2849   21.3343  101.9279 O   0  0  0  0  0  0  0  0  0  0  0  0
   22.7483   22.2357  102.8278 C   0  0  2  0  0  0  0  0  0  0  0  0
   21.3582   22.0596  102.8171 F   0  0  0  0  0  0  0  0  0  0  0  0
   23.0443   23.5568  102.5171 F   0  0  0  0  0  0  0  0  0  0  0  0
   23.6415   20.2584   99.8679 C   0  0  0  0  0  0  0  0  0  0  0  0
   24.4815   19.5028  100.4610 O   0  0  0  0  0  0  0  0  0  0  0  0
   25.5349   18.7678  100.7486 C   0  0  0  0  0  0  0  0  0  0  0  0
   23.3391   20.1554   98.5081 C   0  0  0  0  0  0  0  0  0  0  0  0
   22.4053   19.7302   95.6603 N   0  0  0  0  0  0  0  0  0  0  0  0
   22.3325   19.8541   94.2576 C   0  0  0  0  0  0  0  0  0  0  0  0
   23.4243   19.9998   93.4397 C   0  0  0  0  0  0  0  0  0  0  0  0
   25.0163   20.0365   94.1640 Cl  0  0  0  0  0  0  0  0  0  0  0  0
   23.3093   20.1179   92.0700 C   0  0  0  0  0  0  0  0  0  0  0  0
   22.0754   20.0878   91.5267 N   0  0  0  0  0  0  0  0  0  0  0  0
   20.9683   19.9480   92.2694 C   0  0  0  0  0  0  0  0  0  0  0  0
   21.0829   19.8290   93.6485 C   0  0  0  0  0  0  0  0  0  0  0  0
   19.6168   19.6460   94.6089 Cl  0  0  0  0  0  0  0  0  0  0  0  0
  2  3  1  0
  2  4  1  0
  3  4  1  0
  1  5  2  0
  5  6  1  0
  6  7  2  0
  7  8  1  0
  8  9  2  0
  9 10  1  0
 10 11  1  0
 11 12  1  6
 11 13  1  0
  9 14  1  0
 14 15  1  0
  4 16  1  6
 15 16  1  0
  6 17  1  0
 14 17  2  0
  5 18  1  0
 18 19  1  0
 19 20  2  0
 20 21  1  0
 20 22  1  0
 22 23  2  0
 23 24  1  0
 19 25  1  0
 24 25  2  0
 25 26  1  0
M  END
$$$$
