1XOQ_ROF_B_501
     RDKit          3D

 26 28  0  0  0  0  0  0  0  0999 V2000
   14.5855   27.8505   55.2145 O   0  0  0  0  0  0  0  0  0  0  0  0
   11.2032   32.9784   50.4772 C   0  0  0  0  0  0  0  0  0  0  0  0
   11.7578   34.0864   49.6147 C   0  0  0  0  0  0  0  0  0  0  0  0
   12.2311   32.7245   49.4092 C   0  0  1  0  0  0  0  0  0  0  0  0
   13.9645   28.7763   54.6188 C   0  0  0  0  0  0  0  0  0  0  0  0
   13.9247   28.7701   53.1616 C   0  0  0  0  0  0  0  0  0  0  0  0
   14.0571   27.5740   52.5007 C   0  0  0  0  0  0  0  0  0  0  0  0
   14.0290   27.4939   51.1289 C   0  0  0  0  0  0  0  0  0  0  0  0
   13.8648   28.6266   50.3651 C   0  0  0  0  0  0  0  0  0  0  0  0
   13.8213   28.6715   49.0045 O   0  0  0  0  0  0  0  0  0  0  0  0
   14.0479   27.5879   48.1771 C   0  0  2  0  0  0  0  0  0  0  0  0
   13.1038   26.6061   48.5062 F   0  0  0  0  0  0  0  0  0  0  0  0
   15.3247   27.0578   48.3116 F   0  0  0  0  0  0  0  0  0  0  0  0
   13.7226   29.8954   51.0096 C   0  0  0  0  0  0  0  0  0  0  0  0
   13.5692   30.9482   50.3051 O   0  0  0  0  0  0  0  0  0  0  0  0
   13.5632   32.1950   49.8830 C   0  0  0  0  0  0  0  0  0  0  0  0
   13.7609   29.9021   52.4060 C   0  0  0  0  0  0  0  0  0  0  0  0
   13.3501   29.7565   55.4249 N   0  0  0  0  0  0  0  0  0  0  0  0
   13.7778   29.8968   56.7611 C   0  0  0  0  0  0  0  0  0  0  0  0
   14.7323   30.7915   57.1743 C   0  0  0  0  0  0  0  0  0  0  0  0
   15.4779   31.8330   55.9827 Cl  0  0  0  0  0  0  0  0  0  0  0  0
   15.1225   30.8971   58.4933 C   0  0  0  0  0  0  0  0  0  0  0  0
   14.5385   30.0873   59.3999 N   0  0  0  0  0  0  0  0  0  0  0  0
   13.5998   29.1920   59.0620 C   0  0  0  0  0  0  0  0  0  0  0  0
   13.2062   29.0849   57.7344 C   0  0  0  0  0  0  0  0  0  0  0  0
   11.9710   27.9025   57.3086 Cl  0  0  0  0  0  0  0  0  0  0  0  0
  2  3  1  0
  2  4  1  0
  3  4  1  0
  1  5  2  0
  5  6  1  0
  6  7  2  0
  7  8  1  0
  8  9  2  0
  9 10  1  0
 10 11  1  0
 11 12  1  1
 11 13  1  0
  9 14  1  0
 14 15  1  0
  4 16  1  1
 15 16  1  0
  6 17  1  0
 14 17  2  0
  5 18  1  0
 18 19  1  0
 19 20  2  0
 20 21  1  0
 20 22  1  0
 22 23  2  0
 23 24  1  0
 19 25  1  0
 24 25  2  0
 25 26  1  0
M  END
$$$$
