7PRI_7TI_BBB_406
     RDKit          3D

 20 20  0  0  0  0  0  0  0  0999 V2000
   30.0433    2.0642  -11.6926 Cl  0  0  0  0  0  0  0  0  0  0  0  0
   34.0414    3.7169  -13.5051 O   0  0  0  0  0  0  0  0  0  0  0  0
   33.4803    2.4182  -13.9443 S   0  0  2  0  0  6  0  0  0  0  0  0
   33.2243    1.5143  -12.7729 O   0  0  0  0  0  0  0  0  0  0  0  0
   34.6234    1.6918  -15.0283 N   0  0  0  0  0  0  0  0  0  0  0  0
   32.0193    2.7035  -14.8276 C   0  0  0  0  0  0  0  0  0  0  0  0
   31.9977    2.5617  -16.1984 C   0  0  0  0  0  0  0  0  0  0  0  0
   30.8962    2.7644  -16.9830 C   0  0  0  0  0  0  0  0  0  0  0  0
   30.9796    2.5615  -18.7117 S   0  0  1  0  0  6  0  0  0  0  0  0
   30.6721    3.8755  -19.3788 O   0  0  0  0  0  0  0  0  0  0  0  0
   32.5246    2.0401  -19.2586 N   0  0  0  0  0  0  0  0  0  0  0  0
   29.9757    1.5699  -19.1706 O   0  0  0  0  0  0  0  0  0  0  0  0
   29.7219    3.1357  -16.3674 C   0  0  0  0  0  0  0  0  0  0  0  0
   28.5347    3.3665  -17.1134 N   0  0  0  0  0  0  0  0  0  0  0  0
   29.7171    3.2830  -15.0071 C   0  0  0  0  0  0  0  0  0  0  0  0
   30.8503    3.0741  -14.2147 C   0  0  0  0  0  0  0  0  0  0  0  0
   30.6755    3.2577  -12.7922 C   0  0  0  0  0  0  0  0  0  0  0  0
   30.9819    4.4599  -12.2738 C   0  0  0  0  0  0  0  0  0  0  0  0
   31.1213    5.8944  -13.2494 Cl  0  0  0  0  0  0  0  0  0  0  0  0
   31.2636    4.6464  -10.5348 Cl  0  0  0  0  0  0  0  0  0  0  0  0
  2  3  2  0
  3  4  2  0
  3  5  1  6
  3  6  1  0
  6  7  2  0
  7  8  1  0
  8  9  1  0
  9 10  2  0
  9 11  1  1
  9 12  2  0
  8 13  2  0
 13 14  1  0
 13 15  1  0
 15 16  2  0
  6 16  1  0
  1 17  1  0
 16 17  1  0
 17 18  2  0
 18 19  1  0
 18 20  1  0
M  END
$$$$
