6ZR8_QOZ_A_302
     RDKit          3D

 33 36  0  0  0  0  0  0  0  0999 V2000
   -5.3807    4.0329   14.4037 C   0  0  0  0  0  0  0  0  0  0  0  0
   -5.9726    3.1105   15.2430 C   0  0  0  0  0  0  0  0  0  0  0  0
   -5.3424    1.9864   15.7121 C   0  0  0  0  0  0  0  0  0  0  0  0
   -6.1163    0.8325   16.7748 S   0  0  1  0  0  6  0  0  0  0  0  0
   -5.6292    1.0784   18.1634 O   0  0  0  0  0  0  0  0  0  0  0  0
   -7.6030    1.0815   16.6719 O   0  0  0  0  0  0  0  0  0  0  0  0
   -4.0241    1.7865   15.3012 C   0  0  0  0  0  0  0  0  0  0  0  0
   -3.3991    2.6879   14.4619 C   0  0  0  0  0  0  0  0  0  0  0  0
   -4.0743    3.8154   14.0092 C   0  0  0  0  0  0  0  0  0  0  0  0
   -3.3858    4.7347   13.1341 N   0  0  0  0  0  0  0  0  0  0  0  0
   -4.1665    5.7068   12.5019 C   0  0  0  0  0  0  0  0  0  0  0  0
   -5.4341    5.6341   12.7205 O   0  0  0  0  0  0  0  0  0  0  0  0
   -3.7315    6.7911   11.6244 C   0  0  0  0  0  0  0  0  0  0  0  0
   -2.3044    6.8350   11.4596 N   0  0  0  0  0  0  0  0  0  0  0  0
   -2.0442    8.1321   10.7961 C   0  0  0  0  0  0  0  0  0  0  0  0
   -2.0830    9.2808   11.7676 C   0  0  0  0  0  0  0  0  0  0  0  0
   -1.6205    6.8624   12.7462 C   0  0  0  0  0  0  0  0  0  0  0  0
   -0.4958    7.8778   12.7471 C   0  0  0  0  0  0  0  0  0  0  0  0
   -0.9384    9.2085   12.5763 N   0  0  0  0  0  0  0  0  0  0  0  0
   -0.0279   10.2584   12.6801 C   0  0  2  0  0  0  0  0  0  0  0  0
    1.0186   10.2634   11.5966 C   0  0  0  0  0  0  0  0  0  0  0  0
    2.0224    9.3265   11.7363 C   0  0  0  0  0  0  0  0  0  0  0  0
    3.0302    9.2463   10.7973 C   0  0  0  0  0  0  0  0  0  0  0  0
    2.9783   10.1326    9.7394 C   0  0  0  0  0  0  0  0  0  0  0  0
    1.9758   11.0728    9.5942 C   0  0  0  0  0  0  0  0  0  0  0  0
    0.9655   11.1496   10.5401 C   0  0  0  0  0  0  0  0  0  0  0  0
    0.5417   10.5647   14.0083 C   0  0  0  0  0  0  0  0  0  0  0  0
    1.8606   10.8763   14.2429 C   0  0  0  0  0  0  0  0  0  0  0  0
    2.3500   11.1571   15.5207 C   0  0  0  0  0  0  0  0  0  0  0  0
    1.5299   11.1357   16.6096 C   0  0  0  0  0  0  0  0  0  0  0  0
    0.1995   10.8255   16.4014 C   0  0  0  0  0  0  0  0  0  0  0  0
   -0.2718   10.5529   15.1572 C   0  0  0  0  0  0  0  0  0  0  0  0
   -5.7953   -0.7830   16.2704 N   0  0  0  0  0  0  0  0  0  0  0  0
  1  2  2  0
  2  3  1  0
  3  4  1  0
  4  5  2  0
  4  6  2  0
  3  7  2  0
  7  8  1  0
  8  9  2  0
  1  9  1  0
  9 10  1  0
 10 11  1  0
 11 12  2  0
 11 13  1  0
 13 14  1  1
 15 14  1  6
 15 16  1  0
 17 14  1  1
 17 18  1  0
 16 19  1  1
 18 19  1  1
 20 19  1  1
 20 21  1  0
 21 22  2  0
 22 23  1  0
 23 24  2  0
 24 25  1  0
 21 26  1  0
 25 26  2  0
 20 27  1  0
 27 28  2  0
 28 29  1  0
 29 30  2  0
 30 31  1  0
 31 32  2  0
 27 32  1  0
  4 33  1  6
M  END
$$$$
