6YR2_T1C_BBB_1001
     RDKit          3D

 83 86  0  0  0  0  0  0  0  0999 V2000
    4.9884   -7.2411    1.9822 C   0  0  0  0  0  0  0  0  0  0  0  0
    3.9988   -6.5753    0.9969 C   0  0  0  0  0  0  0  0  0  0  0  0
    3.5659   -7.6252   -0.0438 C   0  0  0  0  0  0  0  0  0  0  0  0
    2.7354   -6.1055    1.7498 C   0  0  0  0  0  0  0  0  0  0  0  0
    4.6360   -5.4560    0.2582 N   0  0  0  0  0  0  0  0  0  0  0  0
    4.9858   -4.2638    1.0552 C   0  0  0  0  0  0  0  0  0  0  0  0
    3.9365   -3.2007    0.9202 C   0  0  0  0  0  0  0  0  0  0  0  0
    3.6731   -2.4736    1.9175 O   0  0  0  0  0  0  0  0  0  0  0  0
    3.3148   -2.9409   -0.3496 N   0  0  0  0  0  0  0  0  0  0  0  0
    2.4958   -1.7825   -0.5781 C   0  0  0  0  0  0  0  0  0  0  0  0
    2.8527   -0.8972   -1.5955 C   0  0  0  0  0  0  0  0  0  0  0  0
    2.1670    0.3219   -1.7955 C   0  0  0  0  0  0  0  0  0  0  0  0
    2.4800    1.1385   -2.9677 N   0  0  0  0  0  4  0  0  0  0  0  0
    3.9284    1.3957   -3.1017 C   0  0  0  0  0  0  0  0  0  0  0  0
    1.9465    0.4970   -4.1822 C   0  0  0  0  0  0  0  0  0  0  0  0
    1.0937    0.6465   -0.9093 C   0  0  0  0  0  0  0  0  0  0  0  0
    0.3547    1.9765   -0.9752 C   0  0  0  0  0  0  0  0  0  0  0  0
   -0.2394    2.3952    0.3903 C   0  0  1  0  0  0  0  0  0  0  0  0
   -0.9383    3.7787    0.2884 C   0  0  0  0  0  0  0  0  0  0  0  0
   -2.4467    3.7732    0.6301 C   0  0  1  0  0  0  0  0  0  0  0  0
   -3.3444    3.2845   -0.5854 C   0  0  2  0  0  0  0  0  0  0  0  0
   -3.8582    4.4009   -1.4465 N   0  0  0  0  0  4  0  0  0  0  0  0
   -4.7834    5.3259   -0.7562 C   0  0  0  0  0  0  0  0  0  0  0  0
   -2.7877    5.1641   -2.1116 C   0  0  0  0  0  0  0  0  0  0  0  0
   -4.5172    2.3802   -0.1916 C   0  0  0  0  0  0  0  0  0  0  0  0
   -5.1474    1.6346   -1.1902 O   0  0  0  0  0  0  0  0  0  0  0  0
   -4.9803    2.3138    1.0694 C   0  0  0  0  0  0  0  0  0  0  0  0
   -6.2432    1.6114    1.3946 C   0  0  0  0  0  0  0  0  0  0  0  0
   -6.3161    0.9093    2.4387 O   0  0  0  0  0  0  0  0  0  0  0  0
   -7.3997    1.7584    0.5703 N   0  0  0  0  0  0  0  0  0  0  0  0
   -4.1561    2.8611    2.1580 C   0  0  0  0  0  0  0  0  0  0  0  0
   -4.6746    3.1529    3.2709 O   0  0  0  0  0  0  0  0  0  0  0  0
   -2.6715    2.9795    1.9453 C   0  0  2  0  0  0  0  0  0  0  0  0
   -2.1149    3.6755    3.0393 O   0  0  0  0  0  0  0  0  0  0  0  0
   -2.0873    1.5772    1.8645 C   0  0  0  0  0  0  0  0  0  0  0  0
   -2.6052    0.6212    2.7473 O   0  0  0  0  0  0  0  0  0  0  0  0
   -1.0788    1.2882    1.0047 C   0  0  0  0  0  0  0  0  0  0  0  0
   -0.6454   -0.1018    0.7158 C   0  0  0  0  0  0  0  0  0  0  0  0
   -1.4099   -1.0771    0.9464 O   0  0  0  0  0  0  0  0  0  0  0  0
    0.6289   -0.3337   -0.0014 C   0  0  0  0  0  0  0  0  0  0  0  0
    1.3363   -1.5383    0.1746 C   0  0  0  0  0  0  0  0  0  0  0  0
    0.8638   -2.4830    1.0879 O   0  0  0  0  0  0  0  0  0  0  0  0
    5.9364   -7.5072    1.4660 H   0  0  0  0  0  0  0  0  0  0  0  0
    4.5507   -8.1718    2.4044 H   0  0  0  0  0  0  0  0  0  0  0  0
    5.2323   -6.5813    2.8391 H   0  0  0  0  0  0  0  0  0  0  0  0
    2.9006   -7.1671   -0.8073 H   0  0  0  0  0  0  0  0  0  0  0  0
    3.0235   -8.4664    0.4403 H   0  0  0  0  0  0  0  0  0  0  0  0
    4.4549   -8.0431   -0.5671 H   0  0  0  0  0  0  0  0  0  0  0  0
    2.9828   -5.3805    2.5550 H   0  0  0  0  0  0  0  0  0  0  0  0
    2.0273   -5.6267    1.0413 H   0  0  0  0  0  0  0  0  0  0  0  0
    2.2211   -6.9677    2.2246 H   0  0  0  0  0  0  0  0  0  0  0  0
    5.5079   -5.8079   -0.2045 H   0  0  0  0  0  0  0  0  0  0  0  0
    5.9407   -3.8334    0.6828 H   0  0  0  0  0  0  0  0  0  0  0  0
    5.1478   -4.5007    2.1243 H   0  0  0  0  0  0  0  0  0  0  0  0
    3.6687   -3.4571   -1.1866 H   0  0  0  0  0  0  0  0  0  0  0  0
    3.6832   -1.1678   -2.2328 H   0  0  0  0  0  0  0  0  0  0  0  0
    2.0309    2.0787   -2.9183 H   0  0  0  0  0  0  0  0  0  0  0  0
    4.3663    1.6854   -2.1198 H   0  0  0  0  0  0  0  0  0  0  0  0
    4.1037    2.2367   -3.8101 H   0  0  0  0  0  0  0  0  0  0  0  0
    4.4722    0.5104   -3.4994 H   0  0  0  0  0  0  0  0  0  0  0  0
    0.8372    0.4216   -4.1155 H   0  0  0  0  0  0  0  0  0  0  0  0
    2.3584   -0.5314   -4.3187 H   0  0  0  0  0  0  0  0  0  0  0  0
    2.1865    1.1045   -5.0832 H   0  0  0  0  0  0  0  0  0  0  0  0
   -0.4414    1.9152   -1.7476 H   0  0  0  0  0  0  0  0  0  0  0  0
    1.0581    2.7913   -1.2400 H   0  0  0  0  0  0  0  0  0  0  0  0
    0.6259    2.5288    1.0805 H   0  0  0  0  0  0  0  0  0  0  0  0
   -0.4296    4.4779    0.9894 H   0  0  0  0  0  0  0  0  0  0  0  0
   -0.7635    4.2281   -0.7062 H   0  0  0  0  0  0  0  0  0  0  0  0
   -2.7086    4.8239    0.8624 H   0  0  0  0  0  0  0  0  0  0  0  0
   -2.7035    2.6320   -1.2190 H   0  0  0  0  0  0  0  0  0  0  0  0
   -4.4091    3.9647   -2.2245 H   0  0  0  0  0  0  0  0  0  0  0  0
   -4.2489    6.0377   -0.0926 H   0  0  0  0  0  0  0  0  0  0  0  0
   -5.3405    5.9295   -1.5049 H   0  0  0  0  0  0  0  0  0  0  0  0
   -5.5393    4.7789   -0.1586 H   0  0  0  0  0  0  0  0  0  0  0  0
   -3.2214    5.8325   -2.8896 H   0  0  0  0  0  0  0  0  0  0  0  0
   -2.2326    5.8075   -1.3927 H   0  0  0  0  0  0  0  0  0  0  0  0
   -2.0802    4.4800   -2.6328 H   0  0  0  0  0  0  0  0  0  0  0  0
   -4.8145    1.6357   -2.1466 H   0  0  0  0  0  0  0  0  0  0  0  0
   -8.2829    1.2553    0.8057 H   0  0  0  0  0  0  0  0  0  0  0  0
   -7.4093    2.4359   -0.2226 H   0  0  0  0  0  0  0  0  0  0  0  0
   -1.1303    3.5556    3.0248 H   0  0  0  0  0  0  0  0  0  0  0  0
   -2.1181   -0.2261    3.0069 H   0  0  0  0  0  0  0  0  0  0  0  0
    1.2538   -3.4133    1.1695 H   0  0  0  0  0  0  0  0  0  0  0  0
  1  2  1  0
  2  3  1  0
  2  4  1  0
  2  5  1  0
  5  6  1  0
  6  7  1  0
  7  8  2  0
  7  9  1  0
  9 10  1  0
 10 11  2  0
 11 12  1  0
 12 13  1  0
 13 14  1  0
 13 15  1  0
 12 16  2  0
 16 17  1  0
 18 17  1  0
 18 19  1  0
 20 19  1  0
 20 21  1  0
 21 22  1  0
 22 23  1  0
 22 24  1  0
 21 25  1  0
 25 26  1  0
 25 27  2  0
 27 28  1  0
 28 29  2  0
 28 30  1  0
 27 31  1  0
 31 32  2  0
 20 33  1  0
 31 33  1  0
 33 34  1  1
 33 35  1  0
 35 36  1  0
 18 37  1  0
 35 37  2  0
 37 38  1  0
 38 39  2  0
 16 40  1  0
 38 40  1  0
 10 41  1  0
 40 41  2  0
 41 42  1  0
  1 43  1  0
  1 44  1  0
  1 45  1  0
  3 46  1  0
  3 47  1  0
  3 48  1  0
  4 49  1  0
  4 50  1  0
  4 51  1  0
  5 52  1  0
  6 53  1  0
  6 54  1  0
  9 55  1  0
 11 56  1  0
 13 57  1  0
 14 58  1  0
 14 59  1  0
 14 60  1  0
 15 61  1  0
 15 62  1  0
 15 63  1  0
 17 64  1  0
 17 65  1  0
 18 66  1  1
 19 67  1  0
 19 68  1  0
 20 69  1  1
 21 70  1  6
 22 71  1  0
 23 72  1  0
 23 73  1  0
 23 74  1  0
 24 75  1  0
 24 76  1  0
 24 77  1  0
 26 78  1  0
 30 79  1  0
 30 80  1  0
 34 81  1  0
 36 82  1  0
 42 83  1  0
M  CHG  2  13   1  22   1
M  END
