6ZCY_QF8_A_701
     RDKit          3D

 59 63  0  0  0  0  0  0  0  0999 V2000
    2.7270    2.1551   12.3366 C   0  0  0  0  0  0  0  0  0  0  0  0
    3.4185    3.0386   13.1638 C   0  0  0  0  0  0  0  0  0  0  0  0
    3.7663    2.2985   14.2739 C   0  0  0  0  0  0  0  0  0  0  0  0
   -3.5162   -3.8988   15.1170 N   0  0  0  0  0  0  0  0  0  0  0  0
    2.7023   -2.2671   15.5768 C   0  0  0  0  0  0  0  0  0  0  0  0
    0.5872   -3.6405   15.2274 C   0  0  0  0  0  0  0  0  0  0  0  0
    0.0287   -4.9125   14.9383 C   0  0  0  0  0  0  0  0  0  0  0  0
   -1.3659   -5.0974   14.8950 C   0  0  0  0  0  0  0  0  0  0  0  0
   -2.1754   -3.9943   15.1704 C   0  0  0  0  0  0  0  0  0  0  0  0
   -1.6500   -2.7750   15.4946 C   0  0  0  0  0  0  0  0  0  0  0  0
   -0.2735   -2.5589   15.5414 C   0  0  0  0  0  0  0  0  0  0  0  0
   -2.7454   -1.9349   15.6291 C   0  0  0  0  0  0  0  0  0  0  0  0
   -4.4568   -4.9509   14.7571 C   0  0  2  0  0  0  0  0  0  0  0  0
   -2.7466   -0.4842   15.8890 C   0  0  0  0  0  0  0  0  0  0  0  0
    3.8484    6.3441   11.4662 C   0  0  1  0  0  0  0  0  0  0  0  0
    3.8976    7.5346   12.4131 C   0  0  1  0  0  0  0  0  0  0  0  0
    2.0025    6.2459   12.9640 C   0  0  2  0  0  0  0  0  0  0  0  0
   -3.5545   -0.0154   16.7336 O   0  0  0  0  0  0  0  0  0  0  0  0
   -1.8237    0.3882   15.2256 N   0  0  0  0  0  0  0  0  0  0  0  0
   -1.6181    1.7629   15.6628 C   0  0  1  0  0  0  0  0  0  0  0  0
   -3.8697   -2.6449   15.3743 N   0  0  0  0  0  0  0  0  0  0  0  0
    2.0208   -3.4812   15.2174 N   0  0  0  0  0  0  0  0  0  0  0  0
    3.3188   -2.1680   16.7844 N   0  0  0  0  0  0  0  0  0  0  0  0
    3.9639   -1.0284   17.1501 C   0  0  0  0  0  0  0  0  0  0  0  0
    3.9914    0.0679   16.2869 C   0  0  0  0  0  0  0  0  0  0  0  0
    2.7508   -1.2177   14.7159 N   0  0  0  0  0  0  0  0  0  0  0  0
    3.3583   -0.0467   15.0396 C   0  0  0  0  0  0  0  0  0  0  0  0
    3.3017    1.0427   14.1046 N   0  0  0  0  0  0  0  0  0  0  0  0
    2.6664    0.9545   12.9448 N   0  0  0  0  0  0  0  0  0  0  0  0
    2.0316    2.4256   11.0417 C   0  0  1  0  0  0  0  0  0  0  0  0
    3.6870    4.4435   13.0050 N   0  0  0  0  0  0  0  0  0  0  0  0
    2.9240    5.3533   12.1419 C   0  0  2  0  0  0  0  0  0  0  0  0
    2.7459    7.4586   13.3140 N   0  0  0  0  0  0  0  0  0  0  0  0
    4.2778    2.6705   15.1498 H   0  0  0  0  0  0  0  0  0  0  0  0
    0.6780   -5.7508   14.7187 H   0  0  0  0  0  0  0  0  0  0  0  0
   -1.7894   -6.0603   14.6421 H   0  0  0  0  0  0  0  0  0  0  0  0
    0.1160   -1.5908   15.8061 H   0  0  0  0  0  0  0  0  0  0  0  0
   -5.0319   -5.2657   15.6531 H   0  0  0  0  0  0  0  0  0  0  0  0
   -3.9047   -5.8224   14.3466 H   0  0  0  0  0  0  0  0  0  0  0  0
   -5.1670   -4.5797   13.9886 H   0  0  0  0  0  0  0  0  0  0  0  0
    3.4065    6.6578   10.4937 H   0  0  0  0  0  0  0  0  0  0  0  0
    4.8660    5.9304   11.2864 H   0  0  0  0  0  0  0  0  0  0  0  0
    4.8275    7.4906   13.0220 H   0  0  0  0  0  0  0  0  0  0  0  0
    3.8973    8.4880   11.8396 H   0  0  0  0  0  0  0  0  0  0  0  0
    1.6476    5.7381   13.8851 H   0  0  0  0  0  0  0  0  0  0  0  0
    1.1062    6.5085   12.3531 H   0  0  0  0  0  0  0  0  0  0  0  0
   -1.2600    0.0289   14.4242 H   0  0  0  0  0  0  0  0  0  0  0  0
   -1.0289    1.7786   16.6054 H   0  0  0  0  0  0  0  0  0  0  0  0
   -1.0552    2.3208   14.8864 H   0  0  0  0  0  0  0  0  0  0  0  0
   -2.5960    2.2558   15.8390 H   0  0  0  0  0  0  0  0  0  0  0  0
    2.6017   -4.2658   14.8394 H   0  0  0  0  0  0  0  0  0  0  0  0
    4.4507   -0.9717   18.1151 H   0  0  0  0  0  0  0  0  0  0  0  0
    4.5026    0.9709   16.5880 H   0  0  0  0  0  0  0  0  0  0  0  0
    2.7570    2.4506   10.2080 H   0  0  0  0  0  0  0  0  0  0  0  0
    1.3045    1.6163   10.8316 H   0  0  0  0  0  0  0  0  0  0  0  0
    1.4752    3.3828   11.1020 H   0  0  0  0  0  0  0  0  0  0  0  0
    4.5283    4.8146   13.5060 H   0  0  0  0  0  0  0  0  0  0  0  0
    2.3146    4.7781   11.4156 H   0  0  0  0  0  0  0  0  0  0  0  0
    2.1293    8.2899   13.1529 H   0  0  0  0  0  0  0  0  0  0  0  0
  1  2  1  0
  2  3  2  0
  6  7  2  0
  7  8  1  0
  4  9  1  0
  8  9  2  0
  9 10  1  0
 10 11  2  0
  6 11  1  0
 10 12  1  0
  4 13  1  0
 12 14  1  0
 15 16  1  0
 14 18  2  0
 14 19  1  0
 19 20  1  0
 12 21  2  0
  4 21  1  0
  6 22  1  0
  5 22  1  0
  5 23  2  0
 23 24  1  0
 24 25  2  0
  5 26  1  0
 26 27  2  0
 25 27  1  0
  3 28  1  0
 27 28  1  0
  1 29  2  0
 28 29  1  0
  1 30  1  0
  2 31  1  0
 15 32  1  0
 32 31  1  0
 17 32  1  0
 16 33  1  0
 17 33  1  0
  3 34  1  0
  7 35  1  0
  8 36  1  0
 11 37  1  0
 13 38  1  1
 13 39  1  0
 13 40  1  0
 15 41  1  6
 15 42  1  0
 16 43  1  1
 16 44  1  0
 17 45  1  1
 17 46  1  0
 19 47  1  0
 20 48  1  1
 20 49  1  0
 20 50  1  0
 22 51  1  0
 24 52  1  0
 25 53  1  0
 30 54  1  6
 30 55  1  0
 30 56  1  0
 31 57  1  0
 32 58  1  6
 33 59  1  0
M  END
