7PK0_BYC_A_402
     RDKit          3D

 56 59  0  0  0  0  0  0  0  0999 V2000
  -12.2591   23.9313  -13.6478 N   0  0  0  0  0  0  0  0  0  0  0  0
   -5.8739   30.9872  -14.5832 O   0  0  0  0  0  0  0  0  0  0  0  0
   -6.6459   29.7027  -14.5786 P   0  0  2  0  0  0  0  0  0  0  0  0
  -12.8221   25.1985  -14.8926 C   0  0  0  0  0  0  0  0  0  0  0  0
  -10.0551   27.4215  -10.5885 C   0  0  1  0  0  0  0  0  0  0  0  0
  -13.4647   24.3433  -16.3197 S   0  0  0  0  0  0  0  0  0  0  0  0
  -11.0414   23.9809  -13.0866 C   0  0  0  0  0  0  0  0  0  0  0  0
   -5.9674   28.4466  -15.0414 O   0  0  0  0  0  0  0  0  0  0  0  0
   -9.2700   30.8026  -15.0459 P   0  0  1  0  0  0  0  0  0  0  0  0
  -11.8808   24.4570  -14.0240 C   0  0  0  0  0  0  0  0  0  0  0  0
   -9.0578   26.2897  -10.3836 C   0  0  2  0  0  0  0  0  0  0  0  0
   -9.4167   25.4828   -9.2796 O   0  0  0  0  0  0  0  0  0  0  0  0
  -12.7927   25.3289  -17.6763 C   0  0  0  0  0  0  0  0  0  0  0  0
  -10.5021   24.9323  -12.3209 N   0  0  0  0  0  0  0  0  0  0  0  0
   -8.0482   29.8005  -15.3346 O   0  0  0  0  0  0  0  0  0  0  0  0
  -11.9108   24.7199  -12.6596 C   0  0  0  0  0  0  0  0  0  0  0  0
   -7.7750   27.0802  -10.1779 C   0  0  2  0  0  0  0  0  0  0  0  0
   -7.7671   27.5583   -8.8288 O   0  0  0  0  0  0  0  0  0  0  0  0
   -6.2753   27.8718   -8.2636 P   0  0  1  0  0  0  0  0  0  0  0  0
  -11.9870   26.4448  -17.0895 C   0  0  0  0  0  0  0  0  0  0  0  0
  -11.3854   25.9304  -12.1378 C   0  0  0  0  0  0  0  0  0  0  0  0
  -10.1750   30.8505  -16.2395 O   0  0  0  0  0  0  0  0  0  0  0  0
  -11.0049   24.1128  -11.8033 C   0  0  0  0  0  0  0  0  0  0  0  0
   -7.9284   28.2700  -11.1437 C   0  0  2  0  0  0  0  0  0  0  0  0
   -9.3651   28.4525  -11.2730 O   0  0  0  0  0  0  0  0  0  0  0  0
  -12.0319   27.6512  -17.8806 N   0  0  0  0  0  0  0  0  0  0  0  0
  -13.0830   26.3792  -14.7526 O   0  0  0  0  0  0  0  0  0  0  0  0
   -9.8171   30.4428  -13.7126 O   0  0  0  0  0  0  0  0  0  0  0  0
  -10.0536   23.2310  -12.2993 C   0  0  0  0  0  0  0  0  0  0  0  0
   -7.3298   28.1047  -12.5305 C   0  0  0  0  0  0  0  0  0  0  0  0
   -7.1799   29.4220  -13.0949 O   0  0  0  0  0  0  0  0  0  0  0  0
  -12.6562   26.0252  -12.6620 C   0  0  0  0  0  0  0  0  0  0  0  0
  -10.9529   28.3274  -18.3182 C   0  0  0  0  0  0  0  0  0  0  0  0
   -9.8606   27.7855  -18.3997 O   0  0  0  0  0  0  0  0  0  0  0  0
  -13.1092   24.9736  -13.4769 C   0  0  0  0  0  0  0  0  0  0  0  0
  -14.3408   24.9089  -13.9876 N   0  0  0  0  0  0  0  0  0  0  0  0
   -8.5485   32.2305  -14.9715 O   0  0  0  0  0  0  0  0  0  0  0  0
  -10.0439   22.9410  -13.6366 C   0  0  0  0  0  0  0  0  0  0  0  0
  -11.0990   29.8223  -18.5492 C   0  0  0  0  0  0  0  0  0  0  0  0
  -13.2703   27.2020  -12.2471 N   0  0  0  0  0  0  0  0  0  0  0  0
   -5.4126   28.4094   -9.4717 O   0  0  0  0  0  0  0  0  0  0  0  0
  -10.9409   23.5486  -14.5023 C   0  0  0  0  0  0  0  0  0  0  0  0
  -10.5601   30.6697  -17.3918 C   0  0  0  0  0  0  0  0  0  0  0  0
  -12.3755   27.7711  -11.4895 C   0  0  0  0  0  0  0  0  0  0  0  0
   -6.4271   28.9256   -7.1791 O   0  0  0  0  0  0  0  0  0  0  0  0
   -9.7544   31.8101  -17.8236 N   0  0  0  0  0  0  0  0  0  0  0  0
  -11.2000   27.0717  -11.3981 N   0  0  0  0  0  0  0  0  0  0  0  0
   -5.6959   26.6024   -7.7596 O   0  0  0  0  0  0  0  0  0  0  0  0
  -10.1174   33.0748  -17.6894 C   0  0  0  0  0  0  0  0  0  0  0  0
  -11.2991   33.4282  -17.6668 O   0  0  0  0  0  0  0  0  0  0  0  0
   -9.0002   34.0841  -17.4732 C   0  0  2  0  0  0  0  0  0  0  0  0
   -7.8350   33.6154  -18.1254 O   0  0  0  0  0  0  0  0  0  0  0  0
   -8.6831   34.4014  -15.9994 C   0  0  1  0  0  0  0  0  0  0  0  0
   -9.3482   33.4495  -15.0150 C   0  0  0  0  0  0  0  0  0  0  0  0
   -7.1568   34.3313  -15.7860 C   0  0  0  0  0  0  0  0  0  0  0  0
   -9.1784   35.8147  -15.6654 C   0  0  0  0  0  0  0  0  0  0  0  0
  2  3  2  0
  4  6  1  0
  1  7  2  0
  3  8  1  6
  4 10  1  0
  5 11  1  0
 11 12  1  1
  6 13  1  0
  7 14  1  0
  3 15  1  0
  9 15  1  0
 10 16  2  0
 11 17  1  0
 17 18  1  1
 18 19  1  0
 13 20  1  0
 14 21  2  0
  9 22  1  6
 16 23  1  0
 17 24  1  0
  5 25  1  0
 24 25  1  0
 20 26  1  0
  4 27  2  0
  9 28  2  0
 23 29  2  0
 24 30  1  6
  3 31  1  0
 30 31  1  0
 21 32  1  0
 26 33  1  0
 33 34  2  0
  1 35  1  0
 32 35  2  0
 35 36  1  0
  9 37  1  0
 29 38  1  0
 33 39  1  0
 32 40  1  0
 19 41  1  6
 10 42  1  0
 38 42  2  0
 39 43  1  0
 40 44  2  0
 19 45  2  0
 43 46  1  0
  5 47  1  6
 21 47  1  0
 44 47  1  0
 19 48  1  0
 46 49  1  0
 49 50  2  0
 49 51  1  0
 51 52  1  1
 51 53  1  0
 37 54  1  0
 53 54  1  0
 53 55  1  6
 53 56  1  0
M  END
