1OYT_FSN_H_501
     RDKit          3D

 54 58  0  0  0  0  0  0  0  0999 V2000
   17.3290  -11.5491   22.5171 O   0  0  0  0  0  0  0  0  0  0  0  0
   17.8155  -11.7187   21.3661 C   0  0  0  0  0  0  0  0  0  0  0  0
   18.8789  -12.6162   21.1113 N   0  0  0  0  0  0  0  0  0  0  0  0
   19.2685  -13.7367   21.9638 C   0  0  1  0  0  0  0  0  0  0  0  0
   18.1491  -14.0795   22.9106 C   0  0  0  0  0  0  0  0  0  0  0  0
   17.1478  -13.1336   23.1920 C   0  0  0  0  0  0  0  0  0  0  0  0
   16.0716  -13.4728   24.0176 C   0  0  0  0  0  0  0  0  0  0  0  0
   15.9820  -14.7574   24.5610 C   0  0  0  0  0  0  0  0  0  0  0  0
   14.9282  -15.0864   25.3490 F   0  0  0  0  0  0  0  0  0  0  0  0
   16.9725  -15.7055   24.2838 C   0  0  0  0  0  0  0  0  0  0  0  0
   18.0519  -15.3700   23.4592 C   0  0  0  0  0  0  0  0  0  0  0  0
   19.1681  -12.4844   19.7321 C   0  0  0  0  0  0  0  0  0  0  0  0
   20.0634  -13.1552   19.1537 O   0  0  0  0  0  0  0  0  0  0  0  0
   18.3014  -11.4782   19.0363 C   0  0  1  0  0  0  0  0  0  0  0  0
   17.3699  -12.1468   18.0132 C   0  0  1  0  0  0  0  0  0  0  0  0
   16.0705  -12.3365   18.6550 N   0  0  0  0  0  0  0  0  0  0  0  0
   15.0587  -12.2403   17.5889 C   0  0  2  0  0  0  0  0  0  0  0  0
   15.6989  -11.5673   16.3772 C   0  0  1  0  0  0  0  0  0  0  0  0
   17.1369  -11.2896   16.7705 C   0  0  1  0  0  0  0  0  0  0  0  0
   15.9530  -11.2538   19.6495 C   0  0  1  0  0  0  0  0  0  0  0  0
   14.9745  -11.6076   20.7551 C   0  0  0  0  0  0  0  0  0  0  0  0
   13.8980  -10.7473   21.0234 C   0  0  0  0  0  0  0  0  0  0  0  0
   13.0238  -11.0131   22.0813 C   0  0  0  0  0  0  0  0  0  0  0  0
   13.2153  -12.1379   22.8997 C   0  0  0  0  0  0  0  0  0  0  0  0
   14.2893  -13.0019   22.6287 C   0  0  0  0  0  0  0  0  0  0  0  0
   15.1643  -12.7365   21.5723 C   0  0  0  0  0  0  0  0  0  0  0  0
   12.2945  -12.4069   24.0322 C   0  0  0  0  0  0  0  0  0  0  0  0
   12.4268  -13.4825   24.7507 N   0  0  0  0  0  4  0  0  0  0  0  0
   11.2575  -11.4710   24.3464 N   0  0  0  0  0  0  0  0  0  0  0  0
   17.3795  -10.9483   20.1481 C   0  0  1  0  0  0  0  0  0  0  0  0
   19.5227  -14.6163   21.3311 H   0  0  0  0  0  0  0  0  0  0  0  0
   20.1882  -13.4716   22.5325 H   0  0  0  0  0  0  0  0  0  0  0  0
   17.1926  -12.1402   22.7638 H   0  0  0  0  0  0  0  0  0  0  0  0
   15.3005  -12.7441   24.2262 H   0  0  0  0  0  0  0  0  0  0  0  0
   16.9036  -16.7000   24.7026 H   0  0  0  0  0  0  0  0  0  0  0  0
   18.8055  -16.1179   23.2410 H   0  0  0  0  0  0  0  0  0  0  0  0
   18.9311  -10.6738   18.5977 H   0  0  0  0  0  0  0  0  0  0  0  0
   17.7612  -13.1411   17.6926 H   0  0  0  0  0  0  0  0  0  0  0  0
   14.1433  -11.6965   17.9159 H   0  0  0  0  0  0  0  0  0  0  0  0
   14.7451  -13.2727   17.3142 H   0  0  0  0  0  0  0  0  0  0  0  0
   15.6661  -12.2496   15.4986 H   0  0  0  0  0  0  0  0  0  0  0  0
   15.1699  -10.6214   16.1254 H   0  0  0  0  0  0  0  0  0  0  0  0
   17.2452  -10.2043   17.0016 H   0  0  0  0  0  0  0  0  0  0  0  0
   17.8458  -11.5632   15.9566 H   0  0  0  0  0  0  0  0  0  0  0  0
   15.5892  -10.3225   19.1504 H   0  0  0  0  0  0  0  0  0  0  0  0
   13.7453   -9.8616   20.4218 H   0  0  0  0  0  0  0  0  0  0  0  0
   12.2134  -10.3220   22.2744 H   0  0  0  0  0  0  0  0  0  0  0  0
   14.4464  -13.8908   23.2279 H   0  0  0  0  0  0  0  0  0  0  0  0
   15.9908  -13.4131   21.3994 H   0  0  0  0  0  0  0  0  0  0  0  0
   11.7797  -13.6758   25.5471 H   0  0  0  0  0  0  0  0  0  0  0  0
   13.1918  -14.1713   24.5726 H   0  0  0  0  0  0  0  0  0  0  0  0
   10.2565  -11.7695   24.3671 H   0  0  0  0  0  0  0  0  0  0  0  0
   11.4786  -10.4689   24.5446 H   0  0  0  0  0  0  0  0  0  0  0  0
   17.5280   -9.8581   20.3142 H   0  0  0  0  0  0  0  0  0  0  0  0
  1  2  2  0
  2  3  1  0
  3  4  1  0
  4  5  1  0
  5  6  2  0
  6  7  1  0
  7  8  2  0
  8  9  1  0
  8 10  1  0
  5 11  1  0
 10 11  2  0
  3 12  1  0
 12 13  2  0
 14 12  1  0
 14 15  1  0
 15 16  1  0
 16 17  1  0
 17 18  1  0
 15 19  1  0
 18 19  1  0
 16 20  1  0
 20 21  1  0
 21 22  2  0
 22 23  1  0
 23 24  2  0
 24 25  1  0
 21 26  1  0
 25 26  2  0
 24 27  1  0
 27 28  2  0
 27 29  1  0
 30  2  1  0
 14 30  1  0
 20 30  1  0
  4 31  1  6
  4 32  1  0
  6 33  1  0
  7 34  1  0
 10 35  1  0
 11 36  1  0
 14 37  1  6
 15 38  1  6
 17 39  1  1
 17 40  1  0
 18 41  1  6
 18 42  1  0
 19 43  1  1
 19 44  1  0
 20 45  1  6
 22 46  1  0
 23 47  1  0
 25 48  1  0
 26 49  1  0
 28 50  1  0
 28 51  1  0
 29 52  1  0
 29 53  1  0
 30 54  1  1
M  CHG  1  28   1
M  END
