6ZX3_QRZ_A_501
     RDKit          3D

 38 39  0  0  0  0  0  0  0  0999 V2000
   13.0387    9.4593   35.7344 C   0  0  0  0  0  0  0  0  0  0  0  0
   15.1050   12.5207   35.1955 C   0  0  0  0  0  0  0  0  0  0  0  0
   11.7204   13.4056   42.0856 O   0  0  0  0  0  0  0  0  0  0  0  0
   11.4706   12.3791   41.0109 P   0  0  2  0  0  5  0  0  0  0  0  0
   11.0950   13.0087   39.6768 O   0  0  0  0  0  0  0  0  0  0  0  0
   10.4945   11.3096   41.4272 O   0  0  0  0  0  0  0  0  0  0  0  0
   12.8050   11.5433   40.7570 O   0  0  0  0  0  0  0  0  0  0  0  0
   13.7078   11.8982   39.7269 C   0  0  0  0  0  0  0  0  0  0  0  0
   12.9293   12.6851   38.6902 C   0  0  2  0  0  0  0  0  0  0  0  0
   11.4815   12.2570   38.5553 C   0  0  1  0  0  0  0  0  0  0  0  0
   10.6286   13.3943   38.2891 O   0  0  0  0  0  0  0  0  0  0  0  0
   11.5017   11.2739   37.4092 C   0  0  1  0  0  0  0  0  0  0  0  0
   10.2369   11.3080   36.7749 O   0  0  0  0  0  0  0  0  0  0  0  0
   13.5127   12.5172   37.3959 O   0  0  0  0  0  0  0  0  0  0  0  0
   12.6241   11.8143   36.5146 C   0  0  1  0  0  0  0  0  0  0  0  0
   13.4044   10.8070   35.7586 N   0  0  0  0  0  4  0  0  0  0  0  0
   14.5208   11.1947   34.9901 C   0  0  0  0  0  0  0  0  0  0  0  0
   15.1915   10.2890   34.1797 C   0  0  0  0  0  0  0  0  0  0  0  0
   14.7848    8.9684   34.2254 C   0  0  0  0  0  0  0  0  0  0  0  0
   15.3803    8.0419   33.6058 O   0  0  0  0  0  0  0  0  0  0  0  0
   13.7362    8.5921   34.9930 N   0  0  0  0  0  4  0  0  0  0  0  0
   12.0973    9.0542   36.4397 O   0  0  0  0  0  0  0  0  0  0  0  0
   16.4100   12.7912   36.0764 S   0  0  0  0  0  0  0  0  0  0  0  0
   14.4836   13.4496   34.4727 N   0  0  0  0  0  0  0  0  0  0  0  0
   10.9095   13.9147   42.2412 H   0  0  0  0  0  0  0  0  0  0  0  0
    9.6316   11.7129   41.6103 H   0  0  0  0  0  0  0  0  0  0  0  0
   14.1201   11.0164   39.2826 H   0  0  0  0  0  0  0  0  0  0  0  0
   14.5141   12.4834   40.1173 H   0  0  0  0  0  0  0  0  0  0  0  0
   12.9666   13.6980   39.0329 H   0  0  0  0  0  0  0  0  0  0  0  0
   11.0854   11.8202   39.4481 H   0  0  0  0  0  0  0  0  0  0  0  0
   10.9311   13.8442   37.4848 H   0  0  0  0  0  0  0  0  0  0  0  0
   11.6756   10.2533   37.6799 H   0  0  0  0  0  0  0  0  0  0  0  0
   10.0329   12.2184   36.5092 H   0  0  0  0  0  0  0  0  0  0  0  0
   12.1667   12.4138   35.7554 H   0  0  0  0  0  0  0  0  0  0  0  0
   15.9647   10.5901   33.5661 H   0  0  0  0  0  0  0  0  0  0  0  0
   13.4764    7.6425   35.0063 H   0  0  0  0  0  0  0  0  0  0  0  0
   13.6822   13.2135   33.9519 H   0  0  0  0  0  0  0  0  0  0  0  0
   14.8253   14.3728   34.4588 H   0  0  0  0  0  0  0  0  0  0  0  0
  4  3  1  1
  4  5  2  0
  4  6  1  0
  4  7  1  0
  7  8  1  0
  9  8  1  0
  9 10  1  0
 10 11  1  0
 10 12  1  0
 12 13  1  0
  9 14  1  0
 14 15  1  0
 12 15  1  0
 15 16  1  0
  1 16  4  0
  2 17  1  0
 16 17  4  0
 17 18  4  0
 18 19  4  0
 19 20  2  0
 19 21  4  0
  1 21  4  0
  1 22  2  0
  2 23  2  0
  2 24  1  0
  3 25  1  0
  6 26  1  0
  8 27  1  0
  8 28  1  0
  9 29  1  1
 10 30  1  1
 11 31  1  0
 12 32  1  1
 13 33  1  0
 15 34  1  6
 18 35  1  0
 21 36  1  0
 24 37  1  0
 24 38  1  0
M  CHG  2  16   1  21   1
M  END
