
     RDKit          3D

 32 34  0  0  0  0  0  0  0  0999 V2000
    9.0391  -12.9917   26.7338 P   0  0  0  0  0  5  0  0  0  0  0  0
    9.8536  -12.5194   27.8992 O   0  0  0  0  0  0  0  0  0  0  0  0
    9.5725  -12.4053   25.3474 O   0  0  0  0  0  0  0  0  0  0  0  0
    9.1964  -14.5645   26.5038 O   0  0  0  0  0  0  0  0  0  0  0  0
    7.3181  -12.6514   26.8352 C   0  0  0  0  0  0  0  0  0  0  0  0
    6.4790  -11.1360   26.5402 P   0  0  2  0  0  5  0  0  0  0  0  0
    7.0500   -9.8800   27.1135 O   0  0  0  0  0  0  0  0  0  0  0  0
    4.9561  -11.3543   27.0018 O   0  0  0  0  0  0  0  0  0  0  0  0
    6.2969  -11.0409   24.9552 O   0  0  0  0  0  0  0  0  0  0  0  0
    5.4114   -9.9770   24.1697 P   0  0  1  0  0  5  0  0  0  0  0  0
    4.4882   -9.1522   25.0001 O   0  0  0  0  0  0  0  0  0  0  0  0
    6.5001   -9.0842   23.3938 O   0  0  0  0  0  0  0  0  0  0  0  0
    4.7277  -10.8271   22.9946 O   0  0  0  0  0  0  0  0  0  0  0  0
    3.3171  -10.9258   22.9967 C   0  0  0  0  0  0  0  0  0  0  0  0
    2.7571  -11.1854   21.5933 C   0  0  1  0  0  0  0  0  0  0  0  0
    2.3050   -9.9269   21.0528 O   0  0  0  0  0  0  0  0  0  0  0  0
    3.7622  -11.7825   20.6019 C   0  0  1  0  0  0  0  0  0  0  0  0
    3.7293  -13.2123   20.5603 O   0  0  0  0  0  0  0  0  0  0  0  0
    3.2973  -11.2123   19.2729 C   0  0  1  0  0  0  0  0  0  0  0  0
    2.2937  -12.0747   18.7001 O   0  0  0  0  0  0  0  0  0  0  0  0
    2.6694   -9.8732   19.6582 C   0  0  2  0  0  0  0  0  0  0  0  0
    3.5181   -8.7189   19.4275 N   0  0  0  0  0  0  0  0  0  0  0  0
    4.7972   -8.5850   19.9168 C   0  0  0  0  0  0  0  0  0  0  0  0
    5.3347   -7.4247   19.5993 N   0  0  0  0  0  0  0  0  0  0  0  0
    4.3655   -6.7934   18.8637 C   0  0  0  0  0  0  0  0  0  0  0  0
    4.3602   -5.4887   18.2378 C   0  0  0  0  0  0  0  0  0  0  0  0
    5.2693   -4.6653   18.2809 O   0  0  0  0  0  0  0  0  0  0  0  0
    3.1741   -5.2345   17.5621 N   0  0  0  0  0  0  0  0  0  0  0  0
    2.0987   -6.0981   17.5154 C   0  0  0  0  0  0  0  0  0  0  0  0
    1.0187   -5.6786   16.8084 N   0  0  0  0  0  0  0  0  0  0  0  0
    2.0838   -7.2663   18.0968 N   0  0  0  0  0  0  0  0  0  0  0  0
    3.2334   -7.5693   18.7446 C   0  0  0  0  0  0  0  0  0  0  0  0
  1  2  2  0
  1  3  1  0
  1  4  1  0
  1  5  1  0
  5  6  1  0
  6  7  2  0
  6  8  1  1
  6  9  1  0
  9 10  1  0
 10 11  2  0
 10 12  1  6
 10 13  1  0
 13 14  1  0
 15 14  1  1
 15 16  1  0
 15 17  1  0
 17 18  1  6
 17 19  1  0
 19 20  1  1
 16 21  1  0
 19 21  1  0
 21 22  1  1
 22 23  4  0
 23 24  4  0
 24 25  4  0
 25 26  4  0
 26 27  2  0
 26 28  4  0
 28 29  4  0
 29 30  1  0
 29 31  4  0
 22 32  4  0
 25 32  4  0
 31 32  4  0
M  END
