
     RDKit          3D

 22 25  0  0  0  0  0  0  0  0999 V2000
   23.5372   37.7922   40.6008 O   0  0  0  0  0  0  0  0  0  0  0  0
   23.2477   37.6212   39.4192 C   0  0  0  0  0  0  0  0  0  0  0  0
   24.1988   37.0164   38.4710 C   0  0  0  0  0  0  0  0  0  0  0  0
   25.3548   36.3772   38.9365 C   0  0  0  0  0  0  0  0  0  0  0  0
   26.2218   35.7589   38.0293 C   0  0  0  0  0  0  0  0  0  0  0  0
   27.4785   35.0951   38.5093 C   0  0  0  0  0  0  0  0  0  0  0  0
   25.9266   35.8173   36.6619 C   0  0  0  0  0  0  0  0  0  0  0  0
   23.8935   37.0762   37.1069 C   0  0  0  0  0  0  0  0  0  0  0  0
   24.7742   36.4698   36.2095 C   0  0  0  0  0  0  0  0  0  0  0  0
   21.8614   37.8636   38.8706 C   0  0  1  0  0  0  0  0  0  0  0  0
   21.8790   38.2199   37.3772 C   0  0  0  0  0  0  0  0  0  0  0  0
   22.8040   37.7903   36.5794 N   0  0  0  0  0  0  0  0  0  0  0  0
   21.0598   36.7119   39.1253 O   0  0  0  0  0  0  0  0  0  0  0  0
   21.1515   39.0890   39.4334 C   0  0  0  0  0  0  0  0  0  0  0  0
   20.1186   39.4203   38.3501 C   0  0  0  0  0  0  0  0  0  0  0  0
   20.7987   39.0528   37.1069 N   0  0  0  0  0  0  0  0  0  0  0  0
   20.3142   39.4973   35.8670 C   0  0  0  0  0  0  0  0  0  0  0  0
   19.7749   40.7807   35.6856 C   0  0  0  0  0  0  0  0  0  0  0  0
   19.2916   41.2198   34.4453 C   0  0  0  0  0  0  0  0  0  0  0  0
   19.3375   40.3808   33.3402 C   0  0  0  0  0  0  0  0  0  0  0  0
   19.8680   39.1056   33.4784 C   0  0  0  0  0  0  0  0  0  0  0  0
   20.3482   38.6752   34.7226 C   0  0  0  0  0  0  0  0  0  0  0  0
  1  2  2  0
  2  3  1  0
  3  4  4  0
  4  5  4  0
  5  6  1  0
  5  7  4  0
  3  8  4  0
  7  9  4  0
  8  9  4  0
  2 10  1  0
 10 11  1  0
  8 12  1  0
 11 12  2  0
 10 13  1  6
 10 14  1  0
 14 15  1  0
 11 16  1  0
 15 16  1  0
 16 17  1  0
 17 18  4  0
 18 19  4  0
 19 20  4  0
 20 21  4  0
 17 22  4  0
 21 22  4  0
M  END
