6YJA_2BA_B_201
     RDKit          3D

 44 50  0  0  0  0  0  0  0  0999 V2000
    4.2826   -2.3061   15.8417 P   0  0  2  0  0  0  0  0  0  0  0  0
    3.2623   -1.6642   16.7437 O   0  0  0  0  0  0  0  0  0  0  0  0
    5.7430   -2.3319   16.7325 O   0  0  0  0  0  0  0  0  0  0  0  0
    4.5843   -1.4236   14.4457 O   0  0  0  0  0  0  0  0  0  0  0  0
    4.7512   -0.0754   14.8213 C   0  0  0  0  0  0  0  0  0  0  0  0
    3.3817    0.5541   14.6660 C   0  0  1  0  0  0  0  0  0  0  0  0
    3.4579    1.8397   15.1471 O   0  0  0  0  0  0  0  0  0  0  0  0
    3.0867    0.6303   13.1901 C   0  0  1  0  0  0  0  0  0  0  0  0
    1.7219    0.7763   13.0552 O   0  0  0  0  0  0  0  0  0  0  0  0
    3.7851    1.9513   12.8415 C   0  0  1  0  0  0  0  0  0  0  0  0
    3.1642    2.5522   11.7480 O   0  0  0  0  0  0  0  0  0  0  0  0
    3.5174    2.7299   14.1119 C   0  0  2  0  0  0  0  0  0  0  0  0
    4.5647    3.7356   14.3000 N   0  0  0  0  0  0  0  0  0  0  0  0
    5.8954    3.5314   14.3622 C   0  0  0  0  0  0  0  0  0  0  0  0
    6.5407    4.7029   14.5439 N   0  0  0  0  0  0  0  0  0  0  0  0
    5.6227    5.6782   14.6004 C   0  0  0  0  0  0  0  0  0  0  0  0
    5.7426    7.0534   14.7721 C   0  0  0  0  0  0  0  0  0  0  0  0
    7.0324    7.6311   14.9249 N   0  0  0  0  0  0  0  0  0  0  0  0
    4.6046    7.7704   14.7835 N   0  0  0  0  0  0  0  0  0  0  0  0
    3.3955    7.1609   14.6322 C   0  0  0  0  0  0  0  0  0  0  0  0
    3.2990    5.8449   14.4690 N   0  0  0  0  0  0  0  0  0  0  0  0
    4.4086    5.0647   14.4482 C   0  0  0  0  0  0  0  0  0  0  0  0
    0.8969   -0.6669   12.8482 P   0  0  2  0  0  0  0  0  0  0  0  0
    0.7249   -0.8784   11.3417 O   0  0  0  0  0  0  0  0  0  0  0  0
   -0.6581   -0.4746   13.5356 O   0  0  0  0  0  0  0  0  0  0  0  0
    1.6736   -2.0034   13.4846 O   0  0  0  0  0  0  0  0  0  0  0  0
    0.7877   -2.9784   13.9776 C   0  0  0  0  0  0  0  0  0  0  0  0
    1.5734   -3.7510   15.0329 C   0  0  1  0  0  0  0  0  0  0  0  0
    0.9732   -4.9391   15.3721 O   0  0  0  0  0  0  0  0  0  0  0  0
    2.9520   -4.0470   14.4857 C   0  0  1  0  0  0  0  0  0  0  0  0
    3.8999   -3.8971   15.5147 O   0  0  0  0  0  0  0  0  0  0  0  0
    2.8363   -5.5686   14.3109 C   0  0  1  0  0  0  0  0  0  0  0  0
    4.0674   -6.1735   14.3583 O   0  0  0  0  0  0  0  0  0  0  0  0
    1.9869   -5.8433   15.5599 C   0  0  2  0  0  0  0  0  0  0  0  0
    1.5457   -7.2062   15.6364 N   0  0  0  0  0  0  0  0  0  0  0  0
    0.7828   -7.8969   14.7604 C   0  0  0  0  0  0  0  0  0  0  0  0
    0.6079   -9.1571   15.2265 N   0  0  0  0  0  0  0  0  0  0  0  0
    1.2617   -9.2707   16.4040 C   0  0  0  0  0  0  0  0  0  0  0  0
    1.4303  -10.2974   17.3113 C   0  0  0  0  0  0  0  0  0  0  0  0
    0.8421  -11.5740   17.0863 N   0  0  0  0  0  0  0  0  0  0  0  0
    2.1706  -10.0774   18.4337 N   0  0  0  0  0  0  0  0  0  0  0  0
    2.7223   -8.8663   18.6365 C   0  0  0  0  0  0  0  0  0  0  0  0
    2.5788   -7.8436   17.7742 N   0  0  0  0  0  0  0  0  0  0  0  0
    1.8419   -8.0377   16.6418 C   0  0  0  0  0  0  0  0  0  0  0  0
  1  2  2  0
  1  3  1  1
  1  4  1  0
  4  5  1  0
  6  5  1  6
  6  7  1  0
  6  8  1  0
  8  9  1  1
  8 10  1  0
 10 11  1  6
  7 12  1  0
 10 12  1  0
 12 13  1  1
 13 14  1  0
 14 15  2  0
 15 16  1  0
 16 17  2  0
 17 18  1  0
 17 19  1  0
 19 20  2  0
 20 21  1  0
 13 22  1  0
 16 22  1  0
 21 22  2  0
  9 23  1  0
 23 24  2  0
 23 25  1  1
 23 26  1  0
 26 27  1  0
 28 27  1  6
 28 29  1  0
 28 30  1  0
  1 31  1  0
 30 31  1  1
 30 32  1  0
 32 33  1  1
 29 34  1  0
 32 34  1  0
 34 35  1  6
 35 36  1  0
 36 37  2  0
 37 38  1  0
 38 39  2  0
 39 40  1  0
 39 41  1  0
 41 42  2  0
 42 43  1  0
 35 44  1  0
 38 44  1  0
 43 44  2  0
M  END
$$$$
