7TYP_KUR_B_501
     RDKit          3D

 37 42  0  0  0  0  0  0  0  0999 V2000
  -33.4492   12.7083   23.1119 N   0  0  0  0  0  0  0  0  0  0  0  0
  -33.1396   10.1636   18.0177 C   0  0  0  0  0  0  0  0  0  0  0  0
  -33.3203    9.2183   15.8697 C   0  0  0  0  0  0  0  0  0  0  0  0
  -32.7117   10.0433   16.7489 N   0  0  0  0  0  0  0  0  0  0  0  0
  -34.4112    8.4754   16.2606 C   0  0  0  0  0  0  0  0  0  0  0  0
  -31.0811   12.0070   20.3552 O   0  0  0  0  0  0  0  0  0  0  0  0
  -33.4503   12.2753   21.8187 C   0  0  0  0  0  0  0  0  0  0  0  0
  -33.5426   10.5403   20.1526 C   0  0  0  0  0  0  0  0  0  0  0  0
  -32.7006   10.8886   19.1337 C   0  0  0  0  0  0  0  0  0  0  0  0
  -34.2018    9.4290   18.3809 N   0  0  0  0  0  0  0  0  0  0  0  0
  -33.5711   11.8310   24.1521 C   0  0  0  0  0  0  0  0  0  0  0  0
  -33.6964   10.4775   23.8800 C   0  0  0  0  0  0  0  0  0  0  0  0
  -33.5794   10.8926   21.5632 C   0  0  0  0  0  0  0  0  0  0  0  0
  -34.4519    9.6447   19.6562 N   0  0  0  0  0  0  0  0  0  0  0  0
  -33.6961   10.0471   22.5797 N   0  0  0  0  0  0  0  0  0  0  0  0
  -33.3336   13.2483   20.6914 C   0  0  0  0  0  0  0  0  0  0  0  0
  -35.8623    7.9189   17.9546 O   0  0  0  0  0  0  0  0  0  0  0  0
  -34.8572    8.5916   17.5586 C   0  0  0  0  0  0  0  0  0  0  0  0
  -32.7948    9.0319   14.5159 C   0  0  0  0  0  0  0  0  0  0  0  0
  -31.7026    9.7610   14.0392 C   0  0  0  0  0  0  0  0  0  0  0  0
  -31.2080    9.5074   12.7766 C   0  0  0  0  0  0  0  0  0  0  0  0
  -31.7311    8.5582   11.9280 C   0  0  0  0  0  0  0  0  0  0  0  0
  -32.8096    7.8392   12.3946 C   0  0  0  0  0  0  0  0  0  0  0  0
  -33.3297    8.0799   13.6757 C   0  0  0  0  0  0  0  0  0  0  0  0
  -31.1634    8.2889   10.5866 C   0  0  2  0  0  0  0  0  0  0  0  0
  -31.9132    8.9764    9.5059 C   0  0  0  0  0  0  0  0  0  0  0  0
  -32.1730    8.0668    8.3492 C   0  0  0  0  0  0  0  0  0  0  0  0
  -30.8380    7.4760    7.9107 C   0  0  0  0  0  0  0  0  0  0  0  0
  -30.2139    6.6383    9.0084 C   0  0  0  0  0  0  0  0  0  0  0  0
  -31.0442    6.8033   10.2703 C   0  0  0  0  0  0  0  0  0  0  0  0
  -31.6045   11.8233   19.2238 C   0  0  0  0  0  0  0  0  0  0  0  0
  -29.8344   13.0621   17.6536 C   0  0  0  0  0  0  0  0  0  0  0  0
  -30.5774   14.0981   16.8118 C   0  0  2  0  0  0  0  0  0  0  0  0
  -31.6842   13.0694   16.8704 C   0  0  0  0  0  0  0  0  0  0  0  0
  -29.9808   14.3335   15.4562 C   0  0  0  0  0  0  0  0  0  0  0  0
  -29.1833   13.2623   15.0796 F   0  0  0  0  0  0  0  0  0  0  0  0
  -31.0983   12.5414   18.0874 N   0  0  0  0  0  0  0  0  0  0  0  0
  3  4  1  0
  2  4  1  0
  3  5  2  0
  1  7  2  0
  2  9  2  0
  8  9  1  0
  2 10  1  0
  1 11  1  0
 11 12  2  0
  8 13  1  0
  7 13  1  0
 10 14  1  0
  8 14  2  0
 13 15  2  0
 12 15  1  0
  7 16  1  0
  5 18  1  0
 17 18  2  0
 10 18  1  0
  3 19  1  0
 19 20  2  0
 20 21  1  0
 21 22  2  0
 22 23  1  0
 23 24  2  0
 19 24  1  0
 25 22  1  1
 25 26  1  0
 26 27  1  0
 27 28  1  0
 28 29  1  0
 29 30  1  0
 25 30  1  0
  9 31  1  0
  6 31  2  0
 32 33  1  0
 33 34  1  0
 33 35  1  6
 35 36  1  0
 34 37  1  0
 32 37  1  0
 31 37  1  0
M  END
$$$$
