6Z2C_Q5E_C_201
     RDKit          3D

 26 28  0  0  0  0  0  0  0  0999 V2000
   -6.0478   10.3831   29.3830 O   0  0  0  0  0  0  0  0  0  0  0  0
   -5.0414   10.0688   30.0566 C   0  0  0  0  0  0  0  0  0  0  0  0
   -5.1062    9.2154   31.2651 C   0  0  1  0  0  0  0  0  0  0  0  0
   -5.3803    7.7752   30.9929 C   0  0  1  0  0  0  0  0  0  0  0  0
   -4.7692    7.1526   32.2608 C   0  0  2  0  0  0  0  0  0  0  0  0
   -4.8463    5.4128   32.1066 Cl  0  0  0  0  0  0  0  0  0  0  0  0
   -5.4403    7.8169   33.7243 Cl  0  0  0  0  0  0  0  0  0  0  0  0
   -7.0298    7.3252   30.7269 Cl  0  0  0  0  0  0  0  0  0  0  0  0
   -4.4145    7.2157   30.0041 C   0  0  0  0  0  0  0  0  0  0  0  0
   -4.8377    6.7646   28.3625 Cl  0  0  0  0  0  0  0  0  0  0  0  0
   -3.2117    7.1289   30.5907 C   0  0  0  0  0  0  0  0  0  0  0  0
   -1.7513    6.4674   29.8771 Cl  0  0  0  0  0  0  0  0  0  0  0  0
   -3.3661    7.7017   31.9562 C   0  0  2  0  0  0  0  0  0  0  0  0
   -2.1645    7.2933   33.1027 Cl  0  0  0  0  0  0  0  0  0  0  0  0
   -3.6847    9.1650   31.8097 C   0  0  1  0  0  0  0  0  0  0  0  0
   -2.8567    9.7731   30.7468 C   0  0  0  0  0  0  0  0  0  0  0  0
   -1.6024    9.6800   30.7177 O   0  0  0  0  0  0  0  0  0  0  0  0
   -3.6985   10.4583   29.7962 N   0  0  0  0  0  0  0  0  0  0  0  0
   -3.3007   11.3643   28.7750 C   0  0  0  0  0  0  0  0  0  0  0  0
   -3.6252   12.8087   29.0124 C   0  0  0  0  0  0  0  0  0  0  0  0
   -2.5212   13.7520   28.5860 C   0  0  0  0  0  0  0  0  0  0  0  0
   -2.9209   14.6287   27.4177 C   0  0  0  0  0  0  0  0  0  0  0  0
   -1.9417   15.7243   27.1203 C   0  0  0  0  0  0  0  0  0  0  0  0
   -1.8307   15.9001   25.6436 C   0  0  0  0  0  0  0  0  0  0  0  0
   -1.9739   14.7629   24.8628 O   0  0  0  0  0  0  0  0  0  0  0  0
   -1.6167   17.0420   25.1652 O   0  0  0  0  0  0  0  0  0  0  0  0
  1  2  2  0
  3  2  1  6
  3  4  1  0
  4  5  1  0
  5  6  1  6
  5  7  1  0
  4  8  1  6
  4  9  1  0
  9 10  1  0
  9 11  2  0
 11 12  1  0
  5 13  1  0
 11 13  1  0
 13 14  1  1
 13 15  1  0
  3 15  1  0
 15 16  1  6
 16 17  2  0
 16 18  1  0
  2 18  1  0
 19 18  1  6
 20 19  1  6
 21 20  1  1
 21 22  1  0
 22 23  1  1
 23 24  1  6
 24 25  1  0
 24 26  2  0
M  END
$$$$
