6YQW_82I_A_201
     RDKit          3D

 19 19  0  0  0  0  0  0  0  0999 V2000
    6.1195   -2.7020    0.9128 C   0  0  0  0  0  0  0  0  0  0  0  0
    6.0393   -3.4824    2.1439 N   0  0  0  0  0  0  0  0  0  0  0  0
    4.8639   -3.5298    2.9809 C   0  0  0  0  0  0  0  0  0  0  0  0
    4.5819   -2.5021    3.8933 C   0  0  0  0  0  0  0  0  0  0  0  0
    3.4714   -2.5683    4.6694 N   0  0  0  0  0  0  0  0  0  0  0  0
    2.6160   -3.5904    4.6018 N   0  0  0  0  0  4  0  0  0  0  0  0
    1.4428   -3.5815    5.4757 C   0  0  0  0  0  0  0  0  0  0  0  0
    2.8344   -4.6234    3.7328 C   0  0  0  0  0  0  0  0  0  0  0  0
    2.0228   -5.5884    3.6721 O   0  0  0  0  0  0  0  0  0  0  0  0
    3.9652   -4.6108    2.9050 C   0  0  0  0  0  0  0  0  0  0  0  0
    4.2290   -5.9538    1.7901 Cl  0  0  0  0  0  0  0  0  0  0  0  0
    5.9671   -1.6252    1.1365 H   0  0  0  0  0  0  0  0  0  0  0  0
    5.3517   -3.0528    0.1915 H   0  0  0  0  0  0  0  0  0  0  0  0
    7.1214   -2.8277    0.4504 H   0  0  0  0  0  0  0  0  0  0  0  0
    6.8909   -4.0247    2.4086 H   0  0  0  0  0  0  0  0  0  0  0  0
    5.2338   -1.6465    3.9972 H   0  0  0  0  0  0  0  0  0  0  0  0
    1.4606   -4.4706    6.1416 H   0  0  0  0  0  0  0  0  0  0  0  0
    0.5157   -3.5955    4.8640 H   0  0  0  0  0  0  0  0  0  0  0  0
    1.4315   -2.6685    6.1095 H   0  0  0  0  0  0  0  0  0  0  0  0
  1  2  1  0
  2  3  1  0
  3  4  4  0
  4  5  4  0
  5  6  4  0
  6  7  1  0
  6  8  4  0
  8  9  2  0
  8 10  4  0
  3 10  4  0
 10 11  1  0
  1 12  1  0
  1 13  1  0
  1 14  1  0
  2 15  1  0
  4 16  1  0
  7 17  1  0
  7 18  1  0
  7 19  1  0
M  CHG  1   6   1
M  END
