
     RDKit          3D

 11 12  0  0  0  0  0  0  0  0999 V2000
   43.3460   78.3362   52.9840 O   0  0  0  0  0  0  0  0  0  0  0  0
   43.6707   77.2578   52.5007 C   0  0  0  0  0  0  0  0  0  0  0  0
   42.8259   76.4704   51.4942 C   0  0  2  0  0  0  0  0  0  0  0  0
   41.3239   76.5288   51.7321 C   0  0  0  0  0  0  0  0  0  0  0  0
   40.8351   75.2286   51.0911 C   0  0  0  0  0  0  0  0  0  0  0  0
   41.9426   74.2270   51.4036 C   0  0  0  0  0  0  0  0  0  0  0  0
   43.1225   75.0454   51.5758 N   0  0  0  0  0  0  0  0  0  0  0  0
   44.4180   74.5740   51.5931 C   0  0  0  0  0  0  0  0  0  0  0  0
   44.7244   73.4123   51.3470 O   0  0  0  0  0  0  0  0  0  0  0  0
   45.4556   75.6777   51.8553 C   0  0  0  0  0  0  0  0  0  0  0  0
   44.9202   76.7167   52.7293 N   0  0  0  0  0  0  0  0  0  0  0  0
  1  2  2  0
  2  3  1  0
  3  4  1  1
  4  5  1  0
  5  6  1  0
  3  7  1  0
  6  7  1  0
  7  8  1  0
  8  9  2  0
  8 10  1  0
  2 11  1  0
 10 11  1  0
M  END
