7FT9_4MB_C_301
     RDKit          3D

 14 14  0  0  0  0  0  0  0  0999 V2000
  -23.1579   -0.3947  -32.8473 C   0  0  0  0  0  0  0  0  0  0  0  0
  -24.0630   -1.0396  -35.0023 C   0  0  0  0  0  0  0  0  0  0  0  0
  -23.2602    2.0341  -32.2036 N   0  0  0  0  0  0  0  0  0  0  0  0
  -23.4875    0.9421  -33.1111 C   0  0  0  0  0  0  0  0  0  0  0  0
  -23.4413   -1.3765  -33.7847 C   0  0  0  0  0  0  0  0  0  0  0  0
  -24.3462   -2.0300  -36.0705 C   0  0  0  0  0  0  0  0  0  0  0  0
  -24.3955    0.2815  -35.2338 C   0  0  0  0  0  0  0  0  0  0  0  0
  -23.7539    0.6818  -29.9063 C   0  0  0  0  0  0  0  0  0  0  0  0
  -24.1076    1.2628  -34.3060 C   0  0  0  0  0  0  0  0  0  0  0  0
  -24.8584   -1.6734  -37.1412 O   0  0  0  0  0  0  0  0  0  0  0  0
  -24.0143   -3.2653  -35.8066 O   0  0  0  0  0  0  0  0  0  0  0  0
  -22.7526    1.9035  -30.6663 S   0  0  1  0  0  0  0  0  0  0  0  0
  -21.4153    1.4043  -30.7602 O   0  0  0  0  0  0  0  0  0  0  0  0
  -22.9820    3.1479  -30.0030 O   0  0  0  0  0  0  0  0  0  0  0  0
  1  4  2  0
  3  4  1  0
  1  5  1  0
  2  5  2  0
  2  6  1  0
  2  7  1  0
  4  9  1  0
  7  9  2  0
  6 10  2  0
  6 11  1  0
  3 12  1  0
 12  8  1  1
 12 13  2  0
 12 14  2  0
M  END
