7JXX_VP7_A_401
     RDKit          3D

 45 48  0  0  0  0  0  0  0  0999 V2000
  174.6467   19.9248   47.4278 N   0  0  0  0  0  0  0  0  0  0  0  0
  176.9378   19.6955   46.7887 N   0  0  0  0  0  0  0  0  0  0  0  0
  175.6719   19.2115   46.9230 C   0  0  0  0  0  0  0  0  0  0  0  0
  177.1990   20.9599   47.1815 C   0  0  0  0  0  0  0  0  0  0  0  0
  178.5795   21.4395   47.0030 C   0  0  0  0  0  0  0  0  0  0  0  0
  179.5707   20.6564   46.2831 C   0  0  0  0  0  0  0  0  0  0  0  0
  179.5714   19.4384   45.5913 C   0  0  0  0  0  0  0  0  0  0  0  0
  180.8551   17.7480   44.3162 C   0  0  0  0  0  0  0  0  0  0  0  0
  181.1245   14.2541   44.0991 C   0  0  0  0  0  0  0  0  0  0  0  0
  181.9115   19.8016   45.0221 C   0  0  0  0  0  0  0  0  0  0  0  0
  180.7519   21.4278   46.2775 C   0  0  0  0  0  0  0  0  0  0  0  0
  177.4915   23.4962   49.0523 C   0  0  0  0  0  0  0  0  0  0  0  0
  176.3290   23.1797   48.1236 C   0  0  0  0  0  0  0  0  0  0  0  0
  180.9419   16.6805   43.7959 C   0  0  0  0  0  0  0  0  0  0  0  0
  181.0348   15.3940   43.0986 C   0  0  2  0  0  0  0  0  0  0  0  0
  179.8558   15.2021   42.1624 C   0  0  0  0  0  0  0  0  0  0  0  0
  181.9334   21.0032   45.6821 C   0  0  0  0  0  0  0  0  0  0  0  0
  179.2164   22.5898   47.4338 C   0  0  0  0  0  0  0  0  0  0  0  0
  178.7216   23.7642   48.2145 C   0  0  0  0  0  0  0  0  0  0  0  0
  176.1518   21.7401   47.7023 C   0  0  0  0  0  0  0  0  0  0  0  0
  174.8997   21.1751   47.8028 C   0  0  0  0  0  0  0  0  0  0  0  0
  180.7611   19.0075   44.9900 C   0  0  0  0  0  0  0  0  0  0  0  0
  175.4103   17.9634   46.5146 N   0  0  0  0  0  0  0  0  0  0  0  0
  180.5045   22.5752   46.9795 N   0  0  0  0  0  4  0  0  0  0  0  0
  182.2381   15.3886   42.3082 O   0  0  0  0  0  0  0  0  0  0  0  0
  178.7127   18.8699   45.5258 H   0  0  0  0  0  0  0  0  0  0  0  0
  180.2394   14.2367   44.7003 H   0  0  0  0  0  0  0  0  0  0  0  0
  181.2178   13.3260   43.5750 H   0  0  0  0  0  0  0  0  0  0  0  0
  181.9792   14.3969   44.7268 H   0  0  0  0  0  0  0  0  0  0  0  0
  182.7631   19.4760   44.5385 H   0  0  0  0  0  0  0  0  0  0  0  0
  177.2593   24.3610   49.6381 H   0  0  0  0  0  0  0  0  0  0  0  0
  177.6698   22.6699   49.7083 H   0  0  0  0  0  0  0  0  0  0  0  0
  175.4302   23.4828   48.6186 H   0  0  0  0  0  0  0  0  0  0  0  0
  176.5493   23.7060   47.2183 H   0  0  0  0  0  0  0  0  0  0  0  0
  178.9475   15.2026   42.7280 H   0  0  0  0  0  0  0  0  0  0  0  0
  179.8326   16.0000   41.4498 H   0  0  0  0  0  0  0  0  0  0  0  0
  179.9561   14.2685   41.6494 H   0  0  0  0  0  0  0  0  0  0  0  0
  182.7940   21.5703   45.7346 H   0  0  0  0  0  0  0  0  0  0  0  0
  179.5062   24.0839   48.8679 H   0  0  0  0  0  0  0  0  0  0  0  0
  178.4412   24.5064   47.4966 H   0  0  0  0  0  0  0  0  0  0  0  0
  174.1280   21.7444   48.1841 H   0  0  0  0  0  0  0  0  0  0  0  0
  176.1307   17.4072   46.1392 H   0  0  0  0  0  0  0  0  0  0  0  0
  174.4976   17.6021   46.5897 H   0  0  0  0  0  0  0  0  0  0  0  0
  181.1627   23.2905   47.1356 H   0  0  0  0  0  0  0  0  0  0  0  0
  183.0063   15.5102   42.8879 H   0  0  0  0  0  0  0  0  0  0  0  0
  2  3  4  0
  1  3  4  0
  2  4  4  0
  4  5  1  0
  5  6  4  0
  6  7  4  0
  6 11  4  0
 12 13  1  0
  8 14  3  0
  9 15  1  0
 15 14  1  6
 15 16  1  0
 10 17  4  0
 11 17  4  0
  5 18  4  0
 18 19  1  0
 12 19  1  0
  4 20  4  0
 13 20  1  0
  1 21  4  0
 20 21  4  0
  8 22  1  0
 10 22  4  0
  7 22  4  0
  3 23  1  0
 11 24  4  0
 18 24  4  0
 15 25  1  0
  7 26  1  0
  9 27  1  0
  9 28  1  0
  9 29  1  0
 10 30  1  0
 12 31  1  0
 12 32  1  0
 13 33  1  0
 13 34  1  0
 16 35  1  0
 16 36  1  0
 16 37  1  0
 17 38  1  0
 19 39  1  0
 19 40  1  0
 21 41  1  0
 23 42  1  0
 23 43  1  0
 24 44  1  0
 25 45  1  0
M  CHG  1  24   1
M  END
