7LEV_0JO_B_406
     RDKit          3D

 34 34  0  0  0  0  0  0  0  0999 V2000
   44.0903    9.2968   23.5392 O   0  0  0  0  0  0  0  0  0  0  0  0
   42.8963    9.6299   23.7720 C   0  0  0  0  0  0  0  0  0  0  0  0
   42.2688    9.1566   24.9208 O   0  0  0  0  0  0  0  0  0  0  0  0
   42.1770   10.5434   22.8505 C   0  0  0  0  0  0  0  0  0  0  0  0
   42.4582   11.8476   22.8411 C   0  0  0  0  0  0  0  0  0  0  0  0
   41.1124   10.0762   22.0078 N   0  0  0  0  0  0  0  0  0  0  0  0
   41.1822    9.0414   21.2273 C   0  0  0  0  0  0  0  0  0  0  0  0
   40.0190    8.6327   20.4097 C   0  0  0  0  0  0  0  0  0  0  0  0
   40.2311    8.0051   19.1590 C   0  0  0  0  0  0  0  0  0  0  0  0
   41.5139    7.8123   18.6344 O   0  0  0  0  0  0  0  0  0  0  0  0
   39.1255    7.5798   18.4058 C   0  0  0  0  0  0  0  0  0  0  0  0
   39.3125    6.9155   17.0760 C   0  0  1  0  0  0  0  0  0  0  0  0
   37.8673    7.7882   18.8699 N   0  0  0  0  0  0  0  0  0  0  0  0
   37.6274    8.3890   20.0607 C   0  0  0  0  0  0  0  0  0  0  0  0
   38.6887    8.8159   20.8725 C   0  0  0  0  0  0  0  0  0  0  0  0
   38.3647    9.4209   22.2243 C   0  0  2  0  0  0  0  0  0  0  0  0
   38.4622    8.4641   23.2586 O   0  0  0  0  0  0  0  0  0  0  0  0
   37.0746    7.4691   23.2520 P   0  0  2  0  0  5  0  0  0  0  0  0
   37.5067    6.0364   23.0376 O   0  0  0  0  0  0  0  0  0  0  0  0
   36.0344    7.9252   21.9961 O   0  0  0  0  0  0  0  0  0  0  0  0
   36.2674    7.5866   24.7364 O   0  0  0  0  0  0  0  0  0  0  0  0
   42.8056    8.7489   25.6770 H   0  0  0  0  0  0  0  0  0  0  0  0
   43.2258   12.2673   23.4793 H   0  0  0  0  0  0  0  0  0  0  0  0
   41.9142   12.5198   22.1892 H   0  0  0  0  0  0  0  0  0  0  0  0
   42.1153    8.5050   21.1131 H   0  0  0  0  0  0  0  0  0  0  0  0
   42.3587    7.8635   19.1882 H   0  0  0  0  0  0  0  0  0  0  0  0
   38.3384    6.8039   16.5539 H   0  0  0  0  0  0  0  0  0  0  0  0
   39.9871    7.5282   16.4419 H   0  0  0  0  0  0  0  0  0  0  0  0
   39.7549    5.9068   17.2170 H   0  0  0  0  0  0  0  0  0  0  0  0
   36.6019    8.5163   20.3827 H   0  0  0  0  0  0  0  0  0  0  0  0
   37.3811    9.9444   22.2261 H   0  0  0  0  0  0  0  0  0  0  0  0
   39.1016   10.2252   22.4261 H   0  0  0  0  0  0  0  0  0  0  0  0
   35.1739    8.1321   22.4404 H   0  0  0  0  0  0  0  0  0  0  0  0
   35.3210    7.3820   24.5283 H   0  0  0  0  0  0  0  0  0  0  0  0
  1  2  2  0
  2  3  1  0
  2  4  1  0
  4  5  2  0
  4  6  1  0
  6  7  2  0
  7  8  1  0
  8  9  2  0
  9 10  1  0
  9 11  1  0
 11 12  1  0
 11 13  2  0
 13 14  1  0
  8 15  1  0
 14 15  2  0
 15 16  1  0
 16 17  1  0
 18 17  1  1
 18 19  2  0
 18 20  1  0
 18 21  1  0
  3 22  1  0
  5 23  1  0
  5 24  1  0
  7 25  1  0
 10 26  1  0
 12 27  1  6
 12 28  1  0
 12 29  1  0
 14 30  1  0
 16 31  1  6
 16 32  1  0
 20 33  1  0
 21 34  1  0
M  END
