8AEU_M0L_A_302
     RDKit          3D

 41 45  0  0  0  0  0  0  0  0999 V2000
   27.7110    6.2637   13.8751 O   0  0  0  0  0  0  0  0  0  0  0  0
   29.3678    6.3646   12.3328 N   0  0  0  0  0  0  0  0  0  0  0  0
   35.3275    3.2904   13.4281 O   0  0  0  0  0  0  0  0  0  0  0  0
   30.5527    5.8822   16.8033 N   0  0  0  0  0  0  0  0  0  0  0  0
   29.7175    6.4839   14.8563 N   0  0  0  0  0  0  0  0  0  0  0  0
   29.9116    7.7612   20.5040 C   0  0  0  0  0  0  0  0  0  0  0  0
   28.7432    8.3567   20.8637 C   0  0  0  0  0  0  0  0  0  0  0  0
   31.9413    7.9301   15.5587 C   0  0  0  0  0  0  0  0  0  0  0  0
   33.0947    8.7247   15.5764 C   0  0  0  0  0  0  0  0  0  0  0  0
   30.5991    9.8082   16.0061 C   0  0  0  0  0  0  0  0  0  0  0  0
   30.6147    3.0462   14.4062 O   0  0  0  0  0  0  0  0  0  0  0  0
   31.7500   10.5941   16.0229 C   0  0  0  0  0  0  0  0  0  0  0  0
   27.7338    8.4097   19.9132 C   0  0  0  0  0  0  0  0  0  0  0  0
   27.9244    7.8750   18.6590 C   0  0  0  0  0  0  0  0  0  0  0  0
   30.6826    8.4538   15.7727 C   0  0  0  0  0  0  0  0  0  0  0  0
   32.9878   10.0770   15.8133 C   0  0  0  0  0  0  0  0  0  0  0  0
   30.4496    0.6612   14.3825 C   0  0  0  0  0  0  0  0  0  0  0  0
   34.2360    5.1201   14.4345 C   0  0  0  0  0  0  0  0  0  0  0  0
   29.5116    7.6167   15.8169 C   0  0  2  0  0  0  0  0  0  0  0  0
   30.1322    7.2168   19.2561 C   0  0  0  0  0  0  0  0  0  0  0  0
   33.0927    5.6808   14.9288 C   0  0  0  0  0  0  0  0  0  0  0  0
   28.0383    8.0894   11.4684 C   0  0  0  0  0  0  0  0  0  0  0  0
   28.5891    6.9149   11.2952 C   0  0  0  0  0  0  0  0  0  0  0  0
   28.4803    9.0380   22.4410 Cl  0  0  0  0  0  0  0  0  0  0  0  0
   29.0059    6.3797   13.6883 C   0  0  0  0  0  0  0  0  0  0  0  0
   28.7831    2.0813   13.2669 C   0  0  0  0  0  0  0  0  0  0  0  0
   34.4210   11.0949   15.8423 Cl  0  0  0  0  0  0  0  0  0  0  0  0
   29.1235    7.2606   18.2808 C   0  0  0  0  0  0  0  0  0  0  0  0
   29.3868    6.6802   16.9984 C   0  0  2  0  0  0  0  0  0  0  0  0
   30.7558    5.7624   15.4996 C   0  0  0  0  0  0  0  0  0  0  0  0
   34.1656    3.8500   13.9257 C   0  0  0  0  0  0  0  0  0  0  0  0
   32.9528    3.1906   13.9311 C   0  0  0  0  0  0  0  0  0  0  0  0
   31.7882    3.7399   14.4256 C   0  0  0  0  0  0  0  0  0  0  0  0
   31.8559    5.0096   14.9359 C   0  0  0  0  0  0  0  0  0  0  0  0
   30.2582    1.9650   13.6044 C   0  0  1  0  0  0  0  0  0  0  0  0
   36.5047    4.0225   13.1834 C   0  0  0  0  0  0  0  0  0  0  0  0
   30.6356    5.7312   11.9116 C   0  0  0  0  0  0  0  0  0  0  0  0
   30.4424    4.7847   10.7775 C   0  0  0  0  0  0  0  0  0  0  0  0
   29.2075    4.9133   10.0436 N   0  0  0  0  0  0  0  0  0  0  0  0
   28.4837    6.1556   10.0552 C   0  0  0  0  0  0  0  0  0  0  0  0
   27.8132    6.5650    9.0840 O   0  0  0  0  0  0  0  0  0  0  0  0
  6  7  2  0
  8  9  2  0
 10 12  1  0
  7 13  1  0
 13 14  2  0
 10 15  2  0
  8 15  1  0
 12 16  2  0
  9 16  1  0
  5 19  1  0
 19 15  1  1
  6 20  1  0
 18 21  2  0
  2 23  1  0
 22 23  2  0
  7 24  1  0
  2 25  1  0
  1 25  2  0
  5 25  1  0
 16 27  1  0
 14 28  1  0
 20 28  2  0
  4 29  1  0
 19 29  1  0
 29 28  1  1
  5 30  1  0
  4 30  2  0
  3 31  1  0
 18 31  1  0
 31 32  2  0
 32 33  1  0
 11 33  1  0
 33 34  2  0
 21 34  1  0
 30 34  1  0
 26 35  1  6
 35 11  1  1
 17 35  1  1
 36  3  1  6
 37  2  1  1
 37 38  1  0
 38 39  1  6
 39 40  1  0
 23 40  1  0
 40 41  2  0
M  END
$$$$
