7ZZB_KGX_A_302
     RDKit          3D

 87 92  0  0  0  0  0  0  0  0999 V2000
   18.3214   15.1503    4.1778 N   0  0  0  0  0  0  0  0  0  0  0  0
   14.8496   12.6501    5.3802 C   0  0  1  0  0  0  0  0  0  0  0  0
   18.3598   13.4439    8.3417 C   0  0  0  0  0  0  0  0  0  0  0  0
   17.8986   12.7573    4.6562 N   0  0  0  0  0  0  0  0  0  0  0  0
   18.8393   12.0961    8.1793 C   0  0  0  0  0  0  0  0  0  0  0  0
   16.5025   11.8375    6.9246 O   0  0  0  0  0  0  0  0  0  0  0  0
   17.4982   16.2341    4.7126 C   0  0  2  0  0  0  0  0  0  0  0  0
   21.4441    6.0273    5.6224 O   0  0  0  0  0  0  0  0  0  0  0  0
   16.0011   13.0576    7.4405 C   0  0  2  0  0  0  0  0  0  0  0  0
   15.2161   13.7682    6.3269 C   0  0  2  0  0  0  0  0  0  0  0  0
   17.1140   13.8723    7.9711 N   0  0  0  0  0  0  0  0  0  0  0  0
   15.9329   11.6019    5.6525 C   0  0  2  0  0  0  0  0  0  0  0  0
   23.4055    8.8740    4.7910 O   0  0  0  0  0  0  0  0  0  0  0  0
   17.0358   11.5780    4.5748 C   0  0  1  0  0  0  0  0  0  0  0  0
   14.0991   14.4903    6.7918 O   0  0  0  0  0  0  0  0  0  0  0  0
   17.7363   13.8972    3.8038 C   0  0  0  0  0  0  0  0  0  0  0  0
   20.3433    9.5039    6.4473 N   0  0  0  0  0  0  0  0  0  0  0  0
   18.1728   17.5377    2.7378 N   0  0  0  0  0  0  0  0  0  0  0  0
   17.9506   17.5948    4.1804 C   0  0  1  0  0  0  0  0  0  0  0  0
   17.0583   13.8056    2.7441 O   0  0  0  0  0  0  0  0  0  0  0  0
   19.2317   10.9681    8.0197 C   0  0  0  0  0  0  0  0  0  0  0  0
   19.6884    9.5937    7.7678 C   0  0  1  0  0  0  0  0  0  0  0  0
   21.7891    9.1737    6.5752 C   0  0  1  0  0  0  0  0  0  0  0  0
   22.2601    8.3067    5.3931 C   0  0  2  0  0  0  0  0  0  0  0  0
   24.3528    7.8455    4.6009 C   0  0  2  0  0  0  0  0  0  0  0  0
   23.6804    6.4906    4.8548 C   0  0  1  0  0  0  0  0  0  0  0  0
   22.5641    6.8627    5.7935 C   0  0  2  0  0  0  0  0  0  0  0  0
   26.2177    7.2149    6.2543 C   0  0  0  0  0  0  0  0  0  0  0  0
   27.1219    9.0962    6.5870 C   0  0  0  0  0  0  0  0  0  0  0  0
   26.0899    9.2656    5.7308 C   0  0  0  0  0  0  0  0  0  0  0  0
   26.4944   11.5625    5.6078 C   0  0  0  0  0  0  0  0  0  0  0  0
   27.8978   10.1853    6.9640 C   0  0  0  0  0  0  0  0  0  0  0  0
   19.6411    8.5389    5.5675 C   0  0  2  0  0  0  0  0  0  0  0  0
   20.1072    8.7015    4.1538 C   0  0  0  0  0  0  0  0  0  0  0  0
   18.2997   15.4643    8.9483 C   0  0  0  0  0  0  0  0  0  0  0  0
   17.1033   15.1497    8.3993 C   0  0  0  0  0  0  0  0  0  0  0  0
   16.2773   17.2861    8.8702 C   0  0  0  0  0  0  0  0  0  0  0  0
   18.5163   16.7325    9.4756 C   0  0  0  0  0  0  0  0  0  0  0  0
   19.1203   14.4010    8.9354 N   0  0  0  0  0  0  0  0  0  0  0  0
   16.0752   16.0334    8.3620 N   0  0  0  0  0  0  0  0  0  0  0  0
   17.4859   17.6272    9.4181 N   0  0  0  0  0  0  0  0  0  0  0  0
   19.7626   17.0995   10.0657 N   0  0  0  0  0  0  0  0  0  0  0  0
   25.5114    8.0850    5.4770 N   0  0  0  0  0  0  0  0  0  0  0  0
   27.2344    7.8032    6.9411 N   0  0  0  0  0  0  0  0  0  0  0  0
   25.7513   10.4792    5.2275 N   0  0  0  0  0  0  0  0  0  0  0  0
   27.5577   11.4107    6.4628 N   0  0  0  0  0  0  0  0  0  0  0  0
   29.0359   10.0378    7.8117 N   0  0  0  0  0  0  0  0  0  0  0  0
   13.5633   12.1347    5.6312 O   0  0  0  0  0  0  0  0  0  0  0  0
   23.1565    5.9819    3.6536 O   0  0  0  0  0  0  0  0  0  0  0  0
   20.8186    7.6764    3.5359 O   0  0  0  0  0  0  0  0  0  0  0  0
   19.9074    9.7887    3.5425 O   0  0  0  0  0  0  0  0  0  0  0  0
   19.3619   15.2481    4.1372 H   0  0  0  0  0  0  0  0  0  0  0  0
   14.8700   13.0126    4.3306 H   0  0  0  0  0  0  0  0  0  0  0  0
   18.5461   12.8355    5.4715 H   0  0  0  0  0  0  0  0  0  0  0  0
   17.5768   16.2352    5.8214 H   0  0  0  0  0  0  0  0  0  0  0  0
   16.4343   16.0674    4.4368 H   0  0  0  0  0  0  0  0  0  0  0  0
   20.8279    6.5020    5.0054 H   0  0  0  0  0  0  0  0  0  0  0  0
   15.3242   12.8059    8.2866 H   0  0  0  0  0  0  0  0  0  0  0  0
   15.8786   14.4693    5.7811 H   0  0  0  0  0  0  0  0  0  0  0  0
   15.4656   10.5923    5.6626 H   0  0  0  0  0  0  0  0  0  0  0  0
   16.5907   11.4841    3.5613 H   0  0  0  0  0  0  0  0  0  0  0  0
   17.6652   10.6752    4.7229 H   0  0  0  0  0  0  0  0  0  0  0  0
   13.2885   14.1693    6.3179 H   0  0  0  0  0  0  0  0  0  0  0  0
   17.6486   18.3276    2.2977 H   0  0  0  0  0  0  0  0  0  0  0  0
   19.1887   17.7224    2.5652 H   0  0  0  0  0  0  0  0  0  0  0  0
   17.1698   18.3534    4.4094 H   0  0  0  0  0  0  0  0  0  0  0  0
   18.8901   17.9014    4.6856 H   0  0  0  0  0  0  0  0  0  0  0  0
   18.8238    8.8955    7.8290 H   0  0  0  0  0  0  0  0  0  0  0  0
   20.4027    9.3317    8.5786 H   0  0  0  0  0  0  0  0  0  0  0  0
   22.4285   10.0836    6.6555 H   0  0  0  0  0  0  0  0  0  0  0  0
   22.0061    8.6026    7.5055 H   0  0  0  0  0  0  0  0  0  0  0  0
   21.4491    8.2933    4.6279 H   0  0  0  0  0  0  0  0  0  0  0  0
   24.7017    7.8835    3.5446 H   0  0  0  0  0  0  0  0  0  0  0  0
   24.3569    5.7389    5.3189 H   0  0  0  0  0  0  0  0  0  0  0  0
   22.9334    6.8013    6.8418 H   0  0  0  0  0  0  0  0  0  0  0  0
   26.0124    6.1569    6.3223 H   0  0  0  0  0  0  0  0  0  0  0  0
   26.2465   12.5446    5.2269 H   0  0  0  0  0  0  0  0  0  0  0  0
   18.5435    8.7154    5.5738 H   0  0  0  0  0  0  0  0  0  0  0  0
   19.7932    7.4867    5.9081 H   0  0  0  0  0  0  0  0  0  0  0  0
   15.4786   18.0150    8.8444 H   0  0  0  0  0  0  0  0  0  0  0  0
   20.6594   16.8739    9.5819 H   0  0  0  0  0  0  0  0  0  0  0  0
   19.8001   17.5937   10.9836 H   0  0  0  0  0  0  0  0  0  0  0  0
   29.7644   10.7827    7.8476 H   0  0  0  0  0  0  0  0  0  0  0  0
   29.1869    9.1659    8.3637 H   0  0  0  0  0  0  0  0  0  0  0  0
   13.4172   11.3542    5.0357 H   0  0  0  0  0  0  0  0  0  0  0  0
   22.3161    6.4800    3.4802 H   0  0  0  0  0  0  0  0  0  0  0  0
   21.7230    7.3900    3.8895 H   0  0  0  0  0  0  0  0  0  0  0  0
  3  5  1  0
  1  7  1  0
  6  9  1  0
  9 10  1  0
  2 10  1  0
  3 11  1  0
  9 11  1  0
  6 12  1  0
  2 12  1  0
  4 14  1  0
 12 14  1  0
 10 15  1  0
  1 16  1  0
  4 16  1  0
 18 19  1  0
  7 19  1  0
 16 20  2  0
  5 21  3  0
 17 22  1  0
 21 22  1  0
 17 23  1  0
 13 24  1  0
 24 23  1  0
 13 25  1  0
 25 26  1  0
 26 27  1  0
 27  8  1  0
 24 27  1  0
 29 30  2  0
 29 32  1  0
 17 33  1  0
 33 34  1  0
 35 36  2  0
 11 36  1  0
 35 38  1  0
 35 39  1  0
  3 39  2  0
 37 40  2  0
 36 40  1  0
 38 41  2  0
 37 41  1  0
 38 42  1  0
 28 43  1  0
 30 43  1  0
 25 43  1  0
 29 44  1  0
 28 44  2  0
 30 45  1  0
 31 45  2  0
 32 46  2  0
 31 46  1  0
 32 47  1  0
  2 48  1  0
 26 49  1  0
 34 50  1  0
 34 51  2  0
  1 52  1  0
  2 53  1  6
  4 54  1  0
  7 55  1  1
  7 56  1  0
  8 57  1  0
  9 58  1  1
 10 59  1  6
 12 60  1  1
 14 61  1  6
 14 62  1  0
 15 63  1  0
 18 64  1  0
 18 65  1  0
 19 66  1  6
 19 67  1  0
 22 68  1  6
 22 69  1  0
 23 70  1  1
 23 71  1  0
 24 72  1  6
 25 73  1  6
 26 74  1  1
 27 75  1  1
 28 76  1  0
 31 77  1  0
 33 78  1  6
 33 79  1  0
 37 80  1  0
 42 81  1  0
 42 82  1  0
 47 83  1  0
 47 84  1  0
 48 85  1  0
 49 86  1  0
 50 87  1  0
M  END
