7THI_PGA_A_301
     RDKit          3D

 14 13  0  0  0  0  0  0  0  0999 V2000
   39.4463   34.4413  104.9165 P   0  0  2  0  0  5  0  0  0  0  0  0
   38.8476   33.3030  106.0373 O   0  0  0  0  0  0  0  0  0  0  0  0
   38.3934   35.4881  104.6273 O   0  0  0  0  0  0  0  0  0  0  0  0
   39.8411   33.6425  103.4781 O   0  0  0  0  0  0  0  0  0  0  0  0
   40.8351   35.1930  105.5262 O   0  0  0  0  0  0  0  0  0  0  0  0
   38.4432   33.9911  107.1958 C   0  0  2  0  0  0  0  0  0  0  0  0
   37.7529   33.0319  108.1068 C   0  0  0  0  0  0  0  0  0  0  0  0
   36.5386   32.7498  107.9234 O   0  0  0  0  0  0  0  0  0  0  0  0
   38.4648   32.4118  109.1288 O   0  0  0  0  0  0  0  0  0  0  0  0
   40.2893   32.8080  103.7676 H   0  0  0  0  0  0  0  0  0  0  0  0
   40.6465   35.3252  106.4895 H   0  0  0  0  0  0  0  0  0  0  0  0
   37.7343   34.8136  106.9473 H   0  0  0  0  0  0  0  0  0  0  0  0
   39.3210   34.4110  107.7361 H   0  0  0  0  0  0  0  0  0  0  0  0
   38.0830   32.3515  110.0651 H   0  0  0  0  0  0  0  0  0  0  0  0
  1  2  1  1
  1  3  2  0
  1  4  1  0
  1  5  1  0
  2  6  1  0
  6  7  1  0
  7  8  2  0
  7  9  1  0
  4 10  1  0
  5 11  1  0
  6 12  1  6
  6 13  1  0
  9 14  1  0
M  END
