1L7F_BCZ_A_801
     RDKit          3D

 51 51  0  0  0  0  0  0  0  0999 V2000
   -1.6056   -1.3653   -0.5259 C   0  0  1  0  0  0  0  0  0  0  0  0
   -2.5968   -1.8485    0.4499 N   0  0  0  0  0  0  0  0  0  0  0  0
   -3.9739   -2.0742    0.1101 C   0  0  0  0  0  0  0  0  0  0  0  0
   -4.4032   -1.8245   -1.0872 N   0  0  0  0  0  0  0  0  0  0  0  0
   -4.8742   -2.5733    1.1024 N   0  0  0  0  0  0  0  0  0  0  0  0
   -0.2870   -0.9505    0.1828 C   0  0  2  0  0  0  0  0  0  0  0  0
    0.5692    0.0925   -0.6434 C   0  0  2  0  0  0  0  0  0  0  0  0
    1.6183    0.9590    0.1581 C   0  0  0  0  0  0  0  0  0  0  0  0
    1.1010    1.5358    1.5090 C   0  0  0  0  0  0  0  0  0  0  0  0
    1.3986    0.6818    2.7482 C   0  0  0  0  0  0  0  0  0  0  0  0
    3.0488    0.3551    0.2299 C   0  0  0  0  0  0  0  0  0  0  0  0
    4.1255    1.4255    0.4255 C   0  0  0  0  0  0  0  0  0  0  0  0
   -0.3224    1.0336   -1.3391 N   0  0  0  0  0  0  0  0  0  0  0  0
   -0.3000    1.2447   -2.7589 C   0  0  0  0  0  0  0  0  0  0  0  0
   -1.2557    2.2097   -3.3802 C   0  0  0  0  0  0  0  0  0  0  0  0
    0.4941    0.5976   -3.4937 O   0  0  0  0  0  0  0  0  0  0  0  0
    0.4015   -2.3200    0.3852 C   0  0  2  0  0  0  0  0  0  0  0  0
    1.7924   -2.2265    0.4923 O   0  0  0  0  0  0  0  0  0  0  0  0
    0.0091   -3.1787   -0.8308 C   0  0  1  0  0  0  0  0  0  0  0  0
   -0.2736   -4.6041   -0.4366 C   0  0  0  0  0  0  0  0  0  0  0  0
   -1.2598   -4.8809    0.2991 O   0  0  0  0  0  0  0  0  0  0  0  0
    0.5729   -5.6198   -0.8694 O   0  0  0  0  0  0  0  0  0  0  0  0
   -1.2073   -2.4988   -1.4687 C   0  0  0  0  0  0  0  0  0  0  0  0
   -2.0739   -0.5397   -1.0979 H   0  0  0  0  0  0  0  0  0  0  0  0
   -2.3149   -2.0049    1.4440 H   0  0  0  0  0  0  0  0  0  0  0  0
   -5.4001   -1.9797   -1.3575 H   0  0  0  0  0  0  0  0  0  0  0  0
   -4.5354   -2.7783    2.0684 H   0  0  0  0  0  0  0  0  0  0  0  0
   -5.8804   -2.7407    0.8788 H   0  0  0  0  0  0  0  0  0  0  0  0
   -0.5586   -0.5063    1.1593 H   0  0  0  0  0  0  0  0  0  0  0  0
    1.1239   -0.4884   -1.4109 H   0  0  0  0  0  0  0  0  0  0  0  0
    1.7546    1.8605   -0.4843 H   0  0  0  0  0  0  0  0  0  0  0  0
    1.5643    2.5332    1.6753 H   0  0  0  0  0  0  0  0  0  0  0  0
    0.0079    1.7226    1.4478 H   0  0  0  0  0  0  0  0  0  0  0  0
    2.4642    0.7863    3.0411 H   0  0  0  0  0  0  0  0  0  0  0  0
    0.7765    1.0345    3.5971 H   0  0  0  0  0  0  0  0  0  0  0  0
    1.1831   -0.3907    2.5769 H   0  0  0  0  0  0  0  0  0  0  0  0
    3.1465   -0.3698    1.0597 H   0  0  0  0  0  0  0  0  0  0  0  0
    3.2814   -0.1802   -0.7158 H   0  0  0  0  0  0  0  0  0  0  0  0
    4.1165    2.1460   -0.4198 H   0  0  0  0  0  0  0  0  0  0  0  0
    5.1247    0.9427    0.4630 H   0  0  0  0  0  0  0  0  0  0  0  0
    3.9671    1.9742    1.3772 H   0  0  0  0  0  0  0  0  0  0  0  0
   -0.9744    1.6146   -0.7645 H   0  0  0  0  0  0  0  0  0  0  0  0
   -2.2742    1.7692   -3.3818 H   0  0  0  0  0  0  0  0  0  0  0  0
   -0.9555    2.4384   -4.4248 H   0  0  0  0  0  0  0  0  0  0  0  0
   -1.2676    3.1545   -2.7973 H   0  0  0  0  0  0  0  0  0  0  0  0
   -0.0063   -2.7602    1.3271 H   0  0  0  0  0  0  0  0  0  0  0  0
    2.1133   -3.1075    0.8191 H   0  0  0  0  0  0  0  0  0  0  0  0
    0.8396   -3.1753   -1.5731 H   0  0  0  0  0  0  0  0  0  0  0  0
    0.4025   -6.5834   -0.6081 H   0  0  0  0  0  0  0  0  0  0  0  0
   -0.9117   -2.0617   -2.4486 H   0  0  0  0  0  0  0  0  0  0  0  0
   -2.0486   -3.2009   -1.6596 H   0  0  0  0  0  0  0  0  0  0  0  0
  1  2  1  0
  2  3  1  0
  3  4  2  0
  3  5  1  0
  1  6  1  0
  6  7  1  0
  7  8  1  0
  8  9  1  0
  9 10  1  0
  8 11  1  0
 11 12  1  0
  7 13  1  0
 13 14  1  0
 14 15  1  0
 14 16  2  0
  6 17  1  0
 17 18  1  0
 17 19  1  0
 19 20  1  0
 20 21  2  0
 20 22  1  0
  1 23  1  0
 19 23  1  0
  1 24  1  6
  2 25  1  0
  4 26  1  0
  5 27  1  0
  5 28  1  0
  6 29  1  1
  7 30  1  6
  8 31  1  0
  9 32  1  0
  9 33  1  0
 10 34  1  0
 10 35  1  0
 10 36  1  0
 11 37  1  0
 11 38  1  0
 12 39  1  0
 12 40  1  0
 12 41  1  0
 13 42  1  0
 15 43  1  0
 15 44  1  0
 15 45  1  0
 17 46  1  1
 18 47  1  0
 19 48  1  6
 22 49  1  0
 23 50  1  0
 23 51  1  0
M  END
