7CNS_PMV_A_501
     RDKit          3D

 14 13  0  0  0  0  0  0  0  0999 V2000
    2.9428  -17.5888  -22.5594 O   0  0  0  0  0  0  0  0  0  0  0  0
    2.2304  -18.9178  -22.4893 P   0  0  2  0  0  0  0  0  0  0  0  0
    3.2346  -20.0393  -22.2935 O   0  0  0  0  0  0  0  0  0  0  0  0
    1.3891  -19.1012  -23.8351 O   0  0  0  0  0  0  0  0  0  0  0  0
    1.2496  -18.8691  -21.2199 O   0  0  0  0  0  0  0  0  0  0  0  0
   -0.1684  -18.9573  -21.3763 C   0  0  0  0  0  0  0  0  0  0  0  0
   -0.7279  -20.0428  -20.4620 C   0  0  0  0  0  0  0  0  0  0  0  0
   -1.8697  -20.8293  -21.1124 C   0  0  2  0  0  0  0  0  0  0  0  0
   -3.0407  -19.9981  -21.2054 O   0  0  0  0  0  0  0  0  0  0  0  0
   -2.1905  -21.9699  -20.1651 C   0  0  0  0  0  0  0  0  0  0  0  0
   -1.4625  -21.2720  -22.5274 C   0  0  0  0  0  0  0  0  0  0  0  0
   -2.4063  -22.2072  -23.2748 C   0  0  0  0  0  0  0  0  0  0  0  0
   -3.4020  -22.7190  -22.7108 O   0  0  0  0  0  0  0  0  0  0  0  0
   -2.0832  -22.5517  -24.4416 O   0  0  0  0  0  0  0  0  0  0  0  0
  2  1  1  6
  2  3  1  0
  2  4  2  0
  2  5  1  0
  5  6  1  0
  6  7  1  0
  7  8  1  0
  8  9  1  0
  8 10  1  1
  8 11  1  0
 11 12  1  0
 12 13  1  0
 12 14  2  0
M  END
