7A9E_R4W_A_405
     RDKit          3D

 14 13  0  0  0  0  0  0  0  0999 V2000
   -0.8432   -1.0559    0.8323 C   0  0  0  0  0  0  0  0  0  0  0  0
    2.2176    1.5826   -0.5108 C   0  0  0  0  0  0  0  0  0  0  0  0
   -0.4358    1.8893   -0.2851 O   0  0  0  0  0  0  0  0  0  0  0  0
    0.4402   -0.6250    0.1336 C   0  0  0  0  0  0  0  0  0  0  0  0
    0.8262    1.4755    1.7778 O   0  0  0  0  0  0  0  0  0  0  0  0
    0.7115    1.1298    0.3197 S   0  0  0  0  0  6  0  0  0  0  0  0
   -0.7842   -0.8328    1.9186 H   0  0  0  0  0  0  0  0  0  0  0  0
   -0.9878   -2.1489    0.7015 H   0  0  0  0  0  0  0  0  0  0  0  0
   -1.7164   -0.5271    0.3948 H   0  0  0  0  0  0  0  0  0  0  0  0
    2.3910    2.6727   -0.3982 H   0  0  0  0  0  0  0  0  0  0  0  0
    3.0684    1.0264   -0.0662 H   0  0  0  0  0  0  0  0  0  0  0  0
    2.1371    1.3318   -1.5887 H   0  0  0  0  0  0  0  0  0  0  0  0
    0.3734   -0.8691   -0.9477 H   0  0  0  0  0  0  0  0  0  0  0  0
    1.3017   -1.1735    0.5697 H   0  0  0  0  0  0  0  0  0  0  0  0
  1  4  1  0
  3  6  2  0
  4  6  1  0
  2  6  1  0
  5  6  2  0
  1  7  1  0
  1  8  1  0
  1  9  1  0
  2 10  1  0
  2 11  1  0
  2 12  1  0
  4 13  1  0
  4 14  1  0
M  END
