1L7F_BCZ_A_801
     RDKit          3D

 23 23  0  0  0  0  0  0  0  0999 V2000
   30.0522   45.2303   65.6330 C   0  0  1  0  0  0  0  0  0  0  0  0
   29.9528   44.1182   64.7521 N   0  0  0  0  0  0  0  0  0  0  0  0
   30.8139   42.9670   64.8996 C   0  0  0  0  0  0  0  0  0  0  0  0
   31.7794   42.9605   65.7182 N   0  0  0  0  0  0  0  0  0  0  0  0
   30.5956   41.7874   64.1136 N   0  0  0  0  0  0  0  0  0  0  0  0
   29.5513   46.5423   65.1836 C   0  0  2  0  0  0  0  0  0  0  0  0
   30.2200   47.1424   63.9739 C   0  0  2  0  0  0  0  0  0  0  0  0
   29.6476   48.5097   63.7351 C   0  0  2  0  0  0  0  0  0  0  0  0
   30.1002   49.2142   62.5002 C   0  0  0  0  0  0  0  0  0  0  0  0
   29.2263   50.2442   61.9035 C   0  0  0  0  0  0  0  0  0  0  0  0
   29.5340   49.3848   64.9362 C   0  0  0  0  0  0  0  0  0  0  0  0
   29.3754   50.8289   64.7833 C   0  0  0  0  0  0  0  0  0  0  0  0
   30.0967   46.2070   62.9006 N   0  0  0  0  0  0  0  0  0  0  0  0
   31.2356   45.3565   62.6246 C   0  0  0  0  0  0  0  0  0  0  0  0
   31.1936   44.3826   61.5043 C   0  0  0  0  0  0  0  0  0  0  0  0
   32.2839   45.4168   63.3187 O   0  0  0  0  0  0  0  0  0  0  0  0
   29.7456   47.3788   66.4246 C   0  0  2  0  0  0  0  0  0  0  0  0
   31.0287   47.9065   66.5192 O   0  0  0  0  0  0  0  0  0  0  0  0
   29.5589   46.4074   67.5737 C   0  0  1  0  0  0  0  0  0  0  0  0
   28.4025   46.8750   68.3855 C   0  0  0  0  0  0  0  0  0  0  0  0
   27.5886   47.7291   67.9847 O   0  0  0  0  0  0  0  0  0  0  0  0
   28.2236   46.3273   69.6592 O   0  0  0  0  0  0  0  0  0  0  0  0
   29.2251   45.0679   66.9088 C   0  0  0  0  0  0  0  0  0  0  0  0
  1  2  1  6
  2  3  1  0
  3  4  2  0
  3  5  1  0
  6  1  1  1
  6  7  1  0
  7  8  1  0
  8  9  1  6
  9 10  1  0
  8 11  1  0
 11 12  1  0
  7 13  1  6
 13 14  1  0
 14 15  1  0
 14 16  2  0
  6 17  1  0
 17 18  1  6
 17 19  1  0
 19 20  1  1
 20 21  2  0
 20 22  1  0
  1 23  1  0
 19 23  1  0
M  END
$$$$
