1L7F_BCZ_A_801
     RDKit          3D

 23 23  0  0  0  0  0  0  0  0999 V2000
   -4.2688   11.3171   58.6183 C   0  0  1  0  0  0  0  0  0  0  0  0
   -5.4721   11.9122   59.0881 N   0  0  0  0  0  0  0  0  0  0  0  0
   -5.7011   12.1244   60.4991 C   0  0  0  0  0  0  0  0  0  0  0  0
   -6.2299   11.2342   61.2273 N   0  0  0  0  0  0  0  0  0  0  0  0
   -5.3313   13.3633   61.1198 N   0  0  0  0  0  0  0  0  0  0  0  0
   -3.9989    9.9042   58.9422 C   0  0  2  0  0  0  0  0  0  0  0  0
   -3.8755    9.5579   60.4036 C   0  0  2  0  0  0  0  0  0  0  0  0
   -2.8322   10.4426   61.0224 C   0  0  2  0  0  0  0  0  0  0  0  0
   -1.5458   10.5753   60.2783 C   0  0  0  0  0  0  0  0  0  0  0  0
   -0.5116   11.4934   60.7961 C   0  0  0  0  0  0  0  0  0  0  0  0
   -2.6792   10.3300   62.5007 C   0  0  0  0  0  0  0  0  0  0  0  0
   -2.3922   11.5156   63.3042 C   0  0  0  0  0  0  0  0  0  0  0  0
   -3.6506    8.1498   60.4988 N   0  0  0  0  0  0  0  0  0  0  0  0
   -4.4526    7.4104   61.4508 C   0  0  0  0  0  0  0  0  0  0  0  0
   -4.1846    5.9718   61.7039 C   0  0  0  0  0  0  0  0  0  0  0  0
   -5.3909    7.9592   62.0856 O   0  0  0  0  0  0  0  0  0  0  0  0
   -2.7184    9.6612   58.1816 C   0  0  2  0  0  0  0  0  0  0  0  0
   -1.5889   10.0368   58.9008 O   0  0  0  0  0  0  0  0  0  0  0  0
   -2.8165   10.5658   56.9687 C   0  0  1  0  0  0  0  0  0  0  0  0
   -2.7845    9.7073   55.7534 C   0  0  0  0  0  0  0  0  0  0  0  0
   -2.1626    8.6290   55.6960 O   0  0  0  0  0  0  0  0  0  0  0  0
   -3.4873   10.1343   54.6229 O   0  0  0  0  0  0  0  0  0  0  0  0
   -4.1832   11.2472   57.0932 C   0  0  0  0  0  0  0  0  0  0  0  0
  1  2  1  6
  2  3  1  0
  3  4  2  0
  3  5  1  0
  6  1  1  1
  6  7  1  0
  7  8  1  0
  8  9  1  6
  9 10  1  0
  8 11  1  0
 11 12  1  0
  7 13  1  6
 13 14  1  0
 14 15  1  0
 14 16  2  0
  6 17  1  0
 17 18  1  1
 17 19  1  0
 19 20  1  6
 20 21  2  0
 20 22  1  0
  1 23  1  0
 19 23  1  0
M  END
$$$$
