7AS1_21G_A_501
     RDKit          3D

 29 33  0  0  0  0  0  0  0  0999 V2000
   -3.6830    9.5410    0.0420 C   0  0  0  0  0  0  0  0  0  0  0  0
   -3.6090    8.4470    0.8680 C   0  0  0  0  0  0  0  0  0  0  0  0
   -4.6790    7.5300    0.9450 C   0  0  0  0  0  0  0  0  0  0  0  0
   -5.8950    8.7540   -0.5470 C   0  0  0  0  0  0  0  0  0  0  0  0
   -4.8790    9.7140   -0.6800 C   0  0  0  0  0  0  0  0  0  0  0  0
   -5.3840   10.6800   -1.6410 C   0  0  0  0  0  0  0  0  0  0  0  0
   -5.8090    7.6590    0.2490 N   0  0  0  0  0  0  0  0  0  0  0  0
   -6.6450   10.2270   -1.9900 C   0  0  0  0  0  0  0  0  0  0  0  0
   -6.9260    9.0920   -1.3220 N   0  0  0  0  0  0  0  0  0  0  0  0
   -4.6860   11.8140   -2.1570 C   0  0  0  0  0  0  0  0  0  0  0  0
   -5.2960   12.6080   -3.0560 N   0  0  0  0  0  0  0  0  0  0  0  0
   -4.6370   13.6850   -3.5270 C   0  0  0  0  0  0  0  0  0  0  0  0
   -3.3890   13.9870   -3.0720 C   0  0  0  0  0  0  0  0  0  0  0  0
   -2.7810   13.1670   -2.1210 C   0  0  0  0  0  0  0  0  0  0  0  0
   -3.4870   12.1260   -1.6570 N   0  0  0  0  0  0  0  0  0  0  0  0
   -1.5570   13.3840   -1.6550 N   0  0  0  0  0  0  0  0  0  0  0  0
   -0.9230   12.6200   -0.5690 C   0  0  2  0  0  0  0  0  0  0  0  0
    0.1790   13.4210    0.1130 C   0  0  2  0  0  0  0  0  0  0  0  0
    1.4390   12.5500    0.1700 C   0  0  2  0  0  0  0  0  0  0  0  0
    1.9140   12.2990   -1.2510 C   0  0  0  0  0  0  0  0  0  0  0  0
    0.8060   11.7150   -2.0860 C   0  0  0  0  0  0  0  0  0  0  0  0
   -0.3480   11.3730   -1.1540 C   0  0  1  0  0  0  0  0  0  0  0  0
    0.1360   10.4900   -0.0070 C   0  0  0  0  0  0  0  0  0  0  0  0
    1.1380   11.2000    0.8300 C   0  0  0  0  0  0  0  0  0  0  0  0
   -0.0920   13.9340    1.4680 C   0  0  0  0  0  0  0  0  0  0  0  0
   -1.0560   13.6520    2.1120 O   0  0  0  0  0  0  0  0  0  0  0  0
    0.8290   14.7870    1.8690 O   0  0  0  0  0  0  0  0  0  0  0  0
   -2.7240   15.0280   -3.6320 F   0  0  0  0  0  0  0  0  0  0  0  0
   -2.5240    8.2410    1.6150 F   0  0  0  0  0  0  0  0  0  0  0  0
  1  2  2  0
  2  3  1  0
  4  5  2  0
  1  5  1  0
  5  6  1  0
  4  7  1  0
  3  7  2  0
  6  8  2  0
  4  9  1  0
  8  9  1  0
  6 10  1  0
 10 11  2  0
 11 12  1  0
 12 13  2  0
 13 14  1  0
 10 15  1  0
 14 15  2  0
 14 16  1  0
 17 16  1  6
 17 18  1  0
 18 19  1  0
 19 20  1  6
 20 21  1  0
 17 22  1  0
 22 21  1  6
 22 23  1  0
 23 24  1  0
 19 24  1  0
 18 25  1  1
 25 26  1  0
 25 27  2  0
 13 28  1  0
  2 29  1  0
M  END
$$$$
