7AS1_21G_A_501
     RDKit          3D

 48 52  0  0  0  0  0  0  0  0999 V2000
    1.1435    0.4728    2.1488 C   0  0  0  0  0  0  0  0  0  0  0  0
    1.5553    0.0008    3.4068 C   0  0  0  0  0  0  0  0  0  0  0  0
    2.0558    0.9068    4.3678 C   0  0  0  0  0  0  0  0  0  0  0  0
    1.7420    2.6844    2.8665 C   0  0  0  0  0  0  0  0  0  0  0  0
    1.2508    1.8427    1.9054 C   0  0  0  0  0  0  0  0  0  0  0  0
    0.9428    2.6354    0.8092 C   0  0  0  0  0  0  0  0  0  0  0  0
    2.1426    2.2406    4.0842 N   0  0  0  0  0  0  0  0  0  0  0  0
    1.2758    3.9371    1.1872 C   0  0  0  0  0  0  0  0  0  0  0  0
    1.7648    3.9587    2.4479 N   0  0  0  0  0  0  0  0  0  0  0  0
    0.3748    2.2312   -0.4905 C   0  0  0  0  0  0  0  0  0  0  0  0
    0.1181    3.1699   -1.4409 N   0  0  0  0  0  0  0  0  0  0  0  0
   -0.4107    2.8239   -2.6428 C   0  0  0  0  0  0  0  0  0  0  0  0
   -0.7011    1.4881   -2.9183 C   0  0  0  0  0  0  0  0  0  0  0  0
   -0.4339    0.5275   -1.9346 C   0  0  0  0  0  0  0  0  0  0  0  0
    0.0990    0.9259   -0.7477 N   0  0  0  0  0  0  0  0  0  0  0  0
   -0.7171   -0.8618   -2.1712 N   0  0  0  0  0  0  0  0  0  0  0  0
   -0.4802   -1.8938   -1.1498 C   0  0  2  0  0  0  0  0  0  0  0  0
   -0.4527   -3.3361   -1.7789 C   0  0  2  0  0  0  0  0  0  0  0  0
   -1.4484   -4.2685   -1.0291 C   0  0  2  0  0  0  0  0  0  0  0  0
   -2.8701   -3.6852   -1.2141 C   0  0  0  0  0  0  0  0  0  0  0  0
   -2.9406   -2.2421   -0.6476 C   0  0  0  0  0  0  0  0  0  0  0  0
   -1.5751   -1.8240   -0.0462 C   0  0  1  0  0  0  0  0  0  0  0  0
   -1.2050   -2.8354    1.0645 C   0  0  0  0  0  0  0  0  0  0  0  0
   -1.1375   -4.2739    0.4893 C   0  0  0  0  0  0  0  0  0  0  0  0
    0.9361   -3.9282   -1.8149 C   0  0  0  0  0  0  0  0  0  0  0  0
    1.8011   -3.7859   -0.7325 O   0  0  0  0  0  0  0  0  0  0  0  0
    1.3042   -4.5944   -2.8195 O   0  0  0  0  0  0  0  0  0  0  0  0
   -1.2320    1.1409   -4.1175 F   0  0  0  0  0  0  0  0  0  0  0  0
    1.4721   -1.3209    3.6966 F   0  0  0  0  0  0  0  0  0  0  0  0
    0.7616   -0.2134    1.4089 H   0  0  0  0  0  0  0  0  0  0  0  0
    2.3731    0.5448    5.3366 H   0  0  0  0  0  0  0  0  0  0  0  0
    1.1642    4.8210    0.5725 H   0  0  0  0  0  0  0  0  0  0  0  0
    2.0896    4.7945    2.9826 H   0  0  0  0  0  0  0  0  0  0  0  0
   -0.6066    3.5876   -3.3836 H   0  0  0  0  0  0  0  0  0  0  0  0
   -1.1114   -1.1340   -3.0997 H   0  0  0  0  0  0  0  0  0  0  0  0
    0.5001   -1.6766   -0.6713 H   0  0  0  0  0  0  0  0  0  0  0  0
   -0.7969   -3.2901   -2.8361 H   0  0  0  0  0  0  0  0  0  0  0  0
   -1.4074   -5.3025   -1.4373 H   0  0  0  0  0  0  0  0  0  0  0  0
   -3.1389   -3.6813   -2.2932 H   0  0  0  0  0  0  0  0  0  0  0  0
   -3.6108   -4.3317   -0.6940 H   0  0  0  0  0  0  0  0  0  0  0  0
   -3.2321   -1.5328   -1.4523 H   0  0  0  0  0  0  0  0  0  0  0  0
   -3.7249   -2.1855    0.1387 H   0  0  0  0  0  0  0  0  0  0  0  0
   -1.6442   -0.8025    0.3858 H   0  0  0  0  0  0  0  0  0  0  0  0
   -1.9618   -2.7891    1.8780 H   0  0  0  0  0  0  0  0  0  0  0  0
   -0.2243   -2.5626    1.5113 H   0  0  0  0  0  0  0  0  0  0  0  0
   -1.8747   -4.9201    1.0144 H   0  0  0  0  0  0  0  0  0  0  0  0
   -0.1371   -4.7163    0.6777 H   0  0  0  0  0  0  0  0  0  0  0  0
    2.7267   -4.1968   -0.7489 H   0  0  0  0  0  0  0  0  0  0  0  0
  1  2  2  0
  2  3  1  0
  4  5  2  0
  1  5  1  0
  5  6  1  0
  4  7  1  0
  3  7  2  0
  6  8  2  0
  4  9  1  0
  8  9  1  0
  6 10  1  0
 10 11  2  0
 11 12  1  0
 12 13  2  0
 13 14  1  0
 10 15  1  0
 14 15  2  0
 14 16  1  0
 17 16  1  0
 17 18  1  0
 18 19  1  0
 19 20  1  0
 20 21  1  0
 17 22  1  0
 22 21  1  0
 22 23  1  0
 23 24  1  0
 19 24  1  0
 18 25  1  0
 25 26  1  0
 25 27  2  0
 13 28  1  0
  2 29  1  0
  1 30  1  0
  3 31  1  0
  8 32  1  0
  9 33  1  0
 12 34  1  0
 16 35  1  0
 17 36  1  1
 18 37  1  6
 19 38  1  6
 20 39  1  0
 20 40  1  0
 21 41  1  0
 21 42  1  0
 22 43  1  1
 23 44  1  0
 23 45  1  0
 24 46  1  0
 24 47  1  0
 26 48  1  0
M  END
