7QHL_D5P_A_301
     RDKit          3D

 30 34  0  0  0  0  0  0  0  0999 V2000
   18.5892   -5.5787   14.7177 N   0  0  0  0  0  0  0  0  0  0  0  0
   18.7673    1.2115   16.7556 N   0  0  0  0  0  0  0  0  0  0  0  0
   18.7148    0.9014   15.4489 C   0  0  0  0  0  0  0  0  0  0  0  0
   18.8379    0.2246   17.8159 C   0  0  0  0  0  0  0  0  0  0  0  0
   20.2332   -0.3054   17.9605 C   0  0  0  0  0  0  0  0  0  0  0  0
   20.8339   -1.0218   16.9430 C   0  0  0  0  0  0  0  0  0  0  0  0
   22.1203   -1.5106   17.0730 C   0  0  0  0  0  0  0  0  0  0  0  0
   24.8332   -1.9494   19.5580 C   0  0  0  0  0  0  0  0  0  0  0  0
   22.1958   -0.6460   19.3067 C   0  0  0  0  0  0  0  0  0  0  0  0
   18.4244    1.8789   14.4770 C   0  0  0  0  0  0  0  0  0  0  0  0
   17.7402    2.8225   10.9555 C   0  0  1  0  0  0  0  0  0  0  0  0
   16.6242    1.9229   10.2927 C   0  0  0  0  0  0  0  0  0  0  0  0
   18.3435    1.5093   13.1298 C   0  0  0  0  0  0  0  0  0  0  0  0
   18.2766   -4.1622   15.0088 C   0  0  0  0  0  0  0  0  0  0  0  0
   19.4039   -3.1838   14.7809 C   0  0  0  0  0  0  0  0  0  0  0  0
   19.1560   -2.2535   13.2198 S   0  0  0  0  0  0  0  0  0  0  0  0
   18.8198   -0.6213   13.7269 C   0  0  0  0  0  0  0  0  0  0  0  0
   18.9653   -0.3547   15.0521 N   0  0  0  0  0  0  0  0  0  0  0  0
   22.7808   -1.3437   18.2762 C   0  0  0  0  0  0  0  0  0  0  0  0
   24.1046   -1.8297   18.4279 N   0  0  0  0  0  0  0  0  0  0  0  0
   26.0745   -2.4103   19.1938 C   0  0  0  0  0  0  0  0  0  0  0  0
   26.0361   -2.5044   17.8145 C   0  0  0  0  0  0  0  0  0  0  0  0
   24.8399   -2.1367   17.3272 N   0  0  0  0  0  0  0  0  0  0  0  0
   20.9234   -0.1295   19.1463 C   0  0  0  0  0  0  0  0  0  0  0  0
   18.2039    3.2019   14.4969 N   0  0  0  0  0  0  0  0  0  0  0  0
   17.9128    3.6542   13.2459 N   0  0  0  0  0  0  0  0  0  0  0  0
   18.0141    2.6355   12.4016 C   0  0  0  0  0  0  0  0  0  0  0  0
   18.7440    2.2309    9.9751 C   0  0  0  0  0  0  0  0  0  0  0  0
   17.5744    1.6246    9.1494 C   0  0  0  0  0  0  0  0  0  0  0  0
   18.5378    0.2342   12.7282 N   0  0  0  0  0  0  0  0  0  0  0  0
  2  3  1  0
  2  4  1  0
  4  5  1  0
  5  6  2  0
  6  7  1  0
  3 10  2  0
 11 12  1  0
 10 13  1  0
  1 14  1  0
 14 15  1  0
 15 16  1  0
 16 17  1  0
 17 18  2  0
  3 18  1  0
  7 19  2  0
  9 19  1  0
 19 20  1  0
  8 20  1  0
  8 21  2  0
 21 22  1  0
 20 23  1  0
 22 23  2  0
  5 24  1  0
  9 24  2  0
 10 25  1  0
 25 26  1  0
 11 27  1  1
 26 27  2  0
 13 27  1  0
 11 28  1  0
 12 29  1  0
 28 29  1  0
 13 30  2  0
 17 30  1  0
M  END
