6ZPB_3D1_A_201
     RDKit          3D

 18 20  0  0  0  0  0  0  0  0999 V2000
   18.7829   22.0426   -0.3015 O   0  0  0  0  0  0  0  0  0  0  0  0
   19.1271   23.1401   -1.0897 C   0  0  0  0  0  0  0  0  0  0  0  0
   18.5808   24.3519   -0.4135 C   0  0  1  0  0  0  0  0  0  0  0  0
   17.3245   24.1579    0.1579 O   0  0  0  0  0  0  0  0  0  0  0  0
   17.0957   25.4320    0.6856 C   0  0  1  0  0  0  0  0  0  0  0  0
   16.0173   25.4915    1.6231 N   0  0  0  0  0  0  0  0  0  0  0  0
   15.3779   26.6080    2.0263 C   0  0  0  0  0  0  0  0  0  0  0  0
   15.5338   27.9135    1.7053 N   0  0  0  0  0  0  0  0  0  0  0  0
   14.7655   28.8529    2.2465 C   0  0  0  0  0  0  0  0  0  0  0  0
   13.8098   28.5427    3.1287 N   0  0  0  0  0  0  0  0  0  0  0  0
   13.6155   27.2405    3.4830 C   0  0  0  0  0  0  0  0  0  0  0  0
   12.6144   26.9075    4.4081 N   0  0  0  0  0  0  0  0  0  0  0  0
   14.4109   26.2572    2.9241 C   0  0  0  0  0  0  0  0  0  0  0  0
   14.4644   24.9274    3.0649 N   0  0  0  0  0  0  0  0  0  0  0  0
   15.4603   24.4692    2.2561 C   0  0  0  0  0  0  0  0  0  0  0  0
   18.4154   25.8929    1.2964 C   0  0  0  0  0  0  0  0  0  0  0  0
   19.3658   24.7937    0.7997 C   0  0  2  0  0  0  0  0  0  0  0  0
   20.6197   25.2824    0.4953 O   0  0  0  0  0  0  0  0  0  0  0  0
  2  1  1  1
  3  2  1  0
  3  4  1  1
  4  5  1  0
  5  6  1  1
  6  7  1  0
  7  8  2  0
  8  9  1  0
  9 10  2  0
 10 11  1  0
 11 12  1  0
  7 13  1  0
 11 13  2  0
 13 14  1  0
  6 15  1  0
 14 15  2  0
 16  5  1  1
  3 17  1  0
 16 17  1  0
 17 18  1  6
M  END
$$$$
