1SQ5_PAU_A_6001
     RDKit          3D

 15 14  0  0  0  0  0  0  0  0999 V2000
   56.4220    4.6030    8.5350 O   0  0  0  0  0  0  0  0  0  0  0  0
   54.2700    4.0680    7.3520 C   0  0  0  0  0  0  0  0  0  0  0  0
   55.4240    3.6040    8.3380 C   0  0  0  0  0  0  0  0  0  0  0  0
   54.9570    4.6000    6.0220 C   0  0  0  0  0  0  0  0  0  0  0  0
   53.4530    2.8270    7.1020 C   0  0  0  0  0  0  0  0  0  0  0  0
   53.3530    5.3320    7.9900 C   0  0  1  0  0  0  0  0  0  0  0  0
   54.1660    6.5480    8.0040 O   0  0  0  0  0  0  0  0  0  0  0  0
   52.0560    5.6780    7.1210 C   0  0  0  0  0  0  0  0  0  0  0  0
   52.1710    6.5550    6.1200 O   0  0  0  0  0  0  0  0  0  0  0  0
   50.9080    5.0760    7.3850 N   0  0  0  0  0  0  0  0  0  0  0  0
   49.6790    5.2500    6.5560 C   0  0  0  0  0  0  0  0  0  0  0  0
   48.5740    6.0540    7.3050 C   0  0  0  0  0  0  0  0  0  0  0  0
   49.1200    7.3540    7.9370 C   0  0  0  0  0  0  0  0  0  0  0  0
   49.6170    7.3980    9.1700 O   0  0  0  0  0  0  0  0  0  0  0  0
   49.0410    8.4140    7.1470 O   0  0  0  0  0  0  0  0  0  0  0  0
  1  3  1  0
  2  3  1  0
  2  4  1  0
  2  5  1  0
  2  6  1  0
  6  7  1  6
  6  8  1  0
  8  9  2  0
  8 10  1  0
 10 11  1  0
 11 12  1  0
 12 13  1  0
 13 14  1  0
 13 15  2  0
M  END
$$$$
