6W59_SZD_A_602
     RDKit          3D

 45 47  0  0  0  0  0  0  0  0999 V2000
   19.7417  -37.7350    3.8262 N   0  0  0  0  0  0  0  0  0  0  0  0
   22.2315  -36.0131    1.8656 C   0  0  0  0  0  0  0  0  0  0  0  0
   21.5216  -37.1588    2.2612 C   0  0  0  0  0  0  0  0  0  0  0  0
   22.1983  -38.3748    2.3329 C   0  0  0  0  0  0  0  0  0  0  0  0
   20.0551  -37.1899    2.6130 C   0  0  0  0  0  0  0  0  0  0  0  0
   20.2941  -38.8740    4.4593 C   0  0  0  0  0  0  0  0  0  0  0  0
   19.9510  -41.0663    5.3912 C   0  0  0  0  0  0  0  0  0  0  0  0
   21.6746  -39.0019    4.6581 C   0  0  0  0  0  0  0  0  0  0  0  0
   25.3724  -36.7851    4.6708 C   0  0  0  0  0  0  0  0  0  0  0  0
   25.1996  -36.3325    2.3317 C   0  0  0  0  0  0  0  0  0  0  0  0
   24.3769  -34.8760    0.7181 C   0  0  1  0  0  0  0  0  0  0  0  0
   23.5328  -38.4142    1.9967 C   0  0  0  0  0  0  0  0  0  0  0  0
   24.2586  -37.3197    1.6051 C   0  0  0  0  0  0  0  0  0  0  0  0
   23.5722  -36.1337    1.5463 C   0  0  0  0  0  0  0  0  0  0  0  0
   24.1742  -39.6111    2.0491 F   0  0  0  0  0  0  0  0  0  0  0  0
   24.2778  -35.0326    1.1563 F   0  0  0  0  0  0  0  0  0  0  0  0
   19.2148  -36.7157    1.8477 O   0  0  0  0  0  0  0  0  0  0  0  0
   19.4406  -39.9126    4.8324 C   0  0  0  0  0  0  0  0  0  0  0  0
   21.3101  -41.1988    5.6229 C   0  0  0  0  0  0  0  0  0  0  0  0
   22.1601  -40.1623    5.2483 C   0  0  0  0  0  0  0  0  0  0  0  0
   23.8911  -40.2947    5.5899 S   0  0  2  0  0  6  0  0  0  0  0  0
   24.4725  -38.7990    5.6234 N   0  0  0  0  0  0  0  0  0  0  0  0
   24.4339  -40.9963    4.4568 O   0  0  0  0  0  0  0  0  0  0  0  0
   24.0808  -40.8428    6.9340 O   0  0  0  0  0  0  0  0  0  0  0  0
   24.6983  -37.9813    4.4860 C   0  0  0  0  0  0  0  0  0  0  0  0
   25.6331  -35.9615    3.5960 C   0  0  0  0  0  0  0  0  0  0  0  0
   24.5471  -37.5461    2.1373 C   0  0  0  0  0  0  0  0  0  0  0  0
   24.2813  -38.3592    3.2178 C   0  0  0  0  0  0  0  0  0  0  0  0
   25.4453  -35.4750    1.2279 O   0  0  0  0  0  0  0  0  0  0  0  0
   23.2562  -35.4150    1.1885 F   0  0  0  0  0  0  0  0  0  0  0  0
   24.3991  -33.6013    1.0779 F   0  0  0  0  0  0  0  0  0  0  0  0
   24.3750  -34.9381   -0.6272 F   0  0  0  0  0  0  0  0  0  0  0  0
   19.0338  -37.2714    4.3294 H   0  0  0  0  0  0  0  0  0  0  0  0
   21.7606  -35.0963    1.8141 H   0  0  0  0  0  0  0  0  0  0  0  0
   21.7074  -39.2315    2.6331 H   0  0  0  0  0  0  0  0  0  0  0  0
   19.3132  -41.8388    5.6392 H   0  0  0  0  0  0  0  0  0  0  0  0
   22.3190  -38.2485    4.3717 H   0  0  0  0  0  0  0  0  0  0  0  0
   25.6806  -36.5095    5.6164 H   0  0  0  0  0  0  0  0  0  0  0  0
   25.2612  -37.3840    1.3688 H   0  0  0  0  0  0  0  0  0  0  0  0
   18.4230  -39.8175    4.6898 H   0  0  0  0  0  0  0  0  0  0  0  0
   21.6861  -42.0517    6.0658 H   0  0  0  0  0  0  0  0  0  0  0  0
   24.6901  -38.4180    6.5047 H   0  0  0  0  0  0  0  0  0  0  0  0
   26.1465  -35.0765    3.7311 H   0  0  0  0  0  0  0  0  0  0  0  0
   24.2635  -37.8359    1.1883 H   0  0  0  0  0  0  0  0  0  0  0  0
   23.7732  -39.2474    3.0838 H   0  0  0  0  0  0  0  0  0  0  0  0
  2  3  4  0
  3  4  4  0
  3  5  1  0
  1  5  1  0
  1  6  1  0
  6  8  4  0
  4 12  4  0
 12 13  4  0
 13 14  4  0
  2 14  4  0
 12 15  1  0
 14 16  1  0
  5 17  2  0
  6 18  4  0
  7 18  4  0
  7 19  4  0
  8 20  4  0
 19 20  4  0
 20 21  1  0
 21 22  1  1
 21 23  2  0
 21 24  2  0
  9 25  4  0
 22 25  1  0
 10 26  4  0
  9 26  4  0
 10 27  4  0
 27 28  4  0
 25 28  4  0
 11 29  1  0
 10 29  1  0
 11 30  1  1
 11 31  1  0
 11 32  1  0
  1 33  1  0
  2 34  1  0
  4 35  1  0
  7 36  1  0
  8 37  1  0
  9 38  1  0
 13 39  1  0
 18 40  1  0
 19 41  1  0
 22 42  1  0
 26 43  1  0
 27 44  1  0
 28 45  1  0
M  END
