7OKF_VH5_A_201
     RDKit          3D

 47 50  0  0  0  0  0  0  0  0999 V2000
  -27.5968    7.4271   15.5103 C   0  0  0  0  0  0  0  0  0  0  0  0
  -28.1106    8.7293   15.6529 C   0  0  0  0  0  0  0  0  0  0  0  0
  -29.4130    8.9456   15.2204 C   0  0  0  0  0  0  0  0  0  0  0  0
  -30.1264    7.8968   14.6837 C   0  0  0  0  0  0  0  0  0  0  0  0
  -26.2317    9.5418   17.0073 C   0  0  0  0  0  0  0  0  0  0  0  0
  -25.8415    8.2251   17.1885 C   0  0  0  0  0  0  0  0  0  0  0  0
  -24.0250    8.9268   18.5872 C   0  0  0  0  0  0  0  0  0  0  0  0
  -24.4104   10.2659   18.4076 C   0  0  0  0  0  0  0  0  0  0  0  0
  -22.5642   10.8948   19.8179 C   0  0  0  0  0  0  0  0  0  0  0  0
  -26.2730    7.1273   15.9587 C   0  0  0  0  0  0  0  0  0  0  0  0
  -25.2373    6.8504   16.3042 N   0  0  0  0  0  0  0  0  0  0  0  0
  -29.6456    6.6619   14.5414 N   0  0  0  0  0  0  0  0  0  0  0  0
  -28.4182    6.4602   14.9470 C   0  0  0  0  0  0  0  0  0  0  0  0
  -27.7980    4.8611   14.7488 Cl  0  0  0  0  0  0  0  0  0  0  0  0
  -27.3701    9.7587   16.2138 N   0  0  0  0  0  0  0  0  0  0  0  0
  -25.5161   10.5602   17.6137 C   0  0  0  0  0  0  0  0  0  0  0  0
  -23.6248   11.3026   19.0705 C   0  0  0  0  0  0  0  0  0  0  0  0
  -23.9771   12.6131   18.9269 N   0  0  0  0  0  0  0  0  0  0  0  0
  -25.3927   12.9029   19.1565 C   0  0  0  0  0  0  0  0  0  0  0  0
  -25.7161   14.2996   18.6935 C   0  0  0  0  0  0  0  0  0  0  0  0
  -24.8711   15.2769   19.3680 N   0  0  0  0  0  0  0  0  0  0  0  0
  -25.2207   16.6229   18.9628 C   0  0  0  0  0  0  0  0  0  0  0  0
  -23.4732   14.9954   19.0699 C   0  0  0  0  0  0  0  0  0  0  0  0
  -23.0941   13.6059   19.5364 C   0  0  0  0  0  0  0  0  0  0  0  0
  -22.1561    9.5497   20.0111 C   0  0  0  0  0  0  0  0  0  0  0  0
  -21.2031    9.2036   20.6817 O   0  0  0  0  0  0  0  0  0  0  0  0
  -22.9227    8.6221   19.3759 N   0  0  0  0  0  4  0  0  0  0  0  0
  -24.7493    7.9211   17.9717 C   0  0  0  0  0  0  0  0  0  0  0  0
  -29.8410    9.8813   15.3003 H   0  0  0  0  0  0  0  0  0  0  0  0
  -31.0934    8.0785   14.3723 H   0  0  0  0  0  0  0  0  0  0  0  0
  -26.3727    7.4663   16.7336 H   0  0  0  0  0  0  0  0  0  0  0  0
  -22.0077   11.6276   20.2852 H   0  0  0  0  0  0  0  0  0  0  0  0
  -27.6560   10.6860   16.0478 H   0  0  0  0  0  0  0  0  0  0  0  0
  -25.8035   11.5419   17.4767 H   0  0  0  0  0  0  0  0  0  0  0  0
  -25.6065   12.8179   20.2015 H   0  0  0  0  0  0  0  0  0  0  0  0
  -25.9873   12.2044   18.6057 H   0  0  0  0  0  0  0  0  0  0  0  0
  -26.7418   14.5127   18.9114 H   0  0  0  0  0  0  0  0  0  0  0  0
  -25.5387   14.3615   17.6401 H   0  0  0  0  0  0  0  0  0  0  0  0
  -26.2497   16.8081   19.1905 H   0  0  0  0  0  0  0  0  0  0  0  0
  -25.0635   16.7306   17.9099 H   0  0  0  0  0  0  0  0  0  0  0  0
  -24.6072   17.3244   19.4886 H   0  0  0  0  0  0  0  0  0  0  0  0
  -22.8565   15.7135   19.5687 H   0  0  0  0  0  0  0  0  0  0  0  0
  -23.3295   15.0531   18.0111 H   0  0  0  0  0  0  0  0  0  0  0  0
  -22.0828   13.4012   19.2534 H   0  0  0  0  0  0  0  0  0  0  0  0
  -23.1918   13.5551   20.6007 H   0  0  0  0  0  0  0  0  0  0  0  0
  -22.6805    7.6738   19.4822 H   0  0  0  0  0  0  0  0  0  0  0  0
  -24.4695    6.9361   18.1002 H   0  0  0  0  0  0  0  0  0  0  0  0
  1  2  4  0
  2  3  4  0
  3  4  4  0
  5  6  4  0
  7  8  4  0
  1 10  1  0
 10 11  3  0
  4 12  4  0
 12 13  4  0
  1 13  4  0
 13 14  1  0
  2 15  1  0
  5 15  1  0
  5 16  4  0
  8 16  4  0
  8 17  4  0
  9 17  4  0
 17 18  1  0
 18 19  1  0
 19 20  1  0
 20 21  1  0
 21 22  1  0
 21 23  1  0
 18 24  1  0
 23 24  1  0
  9 25  4  0
 25 26  2  0
  7 27  4  0
 25 27  4  0
  6 28  4  0
  7 28  4  0
  3 29  1  0
  4 30  1  0
  6 31  1  0
  9 32  1  0
 15 33  1  0
 16 34  1  0
 19 35  1  0
 19 36  1  0
 20 37  1  0
 20 38  1  0
 22 39  1  0
 22 40  1  0
 22 41  1  0
 23 42  1  0
 23 43  1  0
 24 44  1  0
 24 45  1  0
 27 46  1  0
 28 47  1  0
M  CHG  1  27   1
M  END
