7UF2_5SP_A_301
     RDKit          3D

 25 24  0  0  0  0  0  0  0  0999 V2000
   -3.3256   -1.3700   -1.1535 O   0  0  0  0  0  0  0  0  0  0  0  0
   -3.5220   -0.4657   -0.1033 C   0  0  0  0  0  0  0  0  0  0  0  0
   -2.3176   -0.4706    0.7917 C   0  0  0  0  0  0  0  0  0  0  0  0
   -2.4192   -0.8858    1.9369 O   0  0  0  0  0  0  0  0  0  0  0  0
   -0.9841    0.0331    0.2880 C   0  0  2  0  0  0  0  0  0  0  0  0
    0.0431   -1.1228    0.2053 C   0  0  1  0  0  0  0  0  0  0  0  0
    1.3386   -0.7114   -0.5174 C   0  0  0  0  0  0  0  0  0  0  0  0
    2.0003    0.3037    0.2015 O   0  0  0  0  0  0  0  0  0  0  0  0
    3.3659    0.7961   -0.6927 P   0  0  0  0  0  5  0  0  0  0  0  0
    4.1138    1.8458    0.0966 O   0  0  0  0  0  0  0  0  0  0  0  0
    4.3961   -0.5202   -0.9653 O   0  0  0  0  0  0  0  0  0  0  0  0
    2.8828    1.4602   -2.1739 O   0  0  0  0  0  0  0  0  0  0  0  0
   -0.5146    1.0522    1.1329 O   0  0  0  0  0  0  0  0  0  0  0  0
    0.3249   -1.6659    1.4731 O   0  0  0  0  0  0  0  0  0  0  0  0
   -4.1370   -1.3117   -1.7218 H   0  0  0  0  0  0  0  0  0  0  0  0
   -3.6714    0.5603   -0.5068 H   0  0  0  0  0  0  0  0  0  0  0  0
   -4.4283   -0.7546    0.4754 H   0  0  0  0  0  0  0  0  0  0  0  0
   -1.1180    0.4417   -0.7416 H   0  0  0  0  0  0  0  0  0  0  0  0
   -0.4147   -1.9323   -0.4060 H   0  0  0  0  0  0  0  0  0  0  0  0
    1.0708   -0.3696   -1.5437 H   0  0  0  0  0  0  0  0  0  0  0  0
    1.9862   -1.6136   -0.5955 H   0  0  0  0  0  0  0  0  0  0  0  0
    4.0930   -0.9086   -1.8244 H   0  0  0  0  0  0  0  0  0  0  0  0
    2.2124    2.1491   -1.9348 H   0  0  0  0  0  0  0  0  0  0  0  0
   -1.0621    1.8584    0.9415 H   0  0  0  0  0  0  0  0  0  0  0  0
    0.7443   -0.9560    2.0248 H   0  0  0  0  0  0  0  0  0  0  0  0
  1  2  1  0
  2  3  1  0
  3  4  2  0
  3  5  1  0
  5  6  1  0
  6  7  1  0
  7  8  1  0
  8  9  1  0
  9 10  2  0
  9 11  1  0
  9 12  1  0
  5 13  1  0
  6 14  1  0
  1 15  1  0
  2 16  1  0
  2 17  1  0
  5 18  1  6
  6 19  1  6
  7 20  1  0
  7 21  1  0
 11 22  1  0
 12 23  1  0
 13 24  1  0
 14 25  1  0
M  END
