7XJN_NSD_C_401
     RDKit          3D

  9  8  0  0  0  0  0  0  0  0999 V2000
  -14.0433    1.6665    0.6018 C   0  0  0  0  0  0  0  0  0  0  0  0
  -13.6919    2.2076    1.9412 N   0  0  0  0  0  0  0  0  0  0  0  0
  -15.0164    0.5112    0.7576 C   0  0  0  0  0  0  0  0  0  0  0  0
  -16.7014   -0.9030   -0.3205 N   0  0  0  0  0  0  0  0  0  0  0  0
  -15.5211   -0.0628   -0.5503 C   0  0  0  0  0  0  0  0  0  0  0  0
  -21.1931    0.4301   -1.3823 N   0  0  0  0  0  0  0  0  0  0  0  0
  -17.8455   -0.5720   -1.1719 C   0  0  0  0  0  0  0  0  0  0  0  0
  -19.1411   -0.5096   -0.3959 C   0  0  0  0  0  0  0  0  0  0  0  0
  -19.9124    0.7506   -0.7541 C   0  0  0  0  0  0  0  0  0  0  0  0
  1  2  1  0
  1  3  1  0
  4  5  1  0
  3  5  1  0
  4  7  1  0
  7  8  1  0
  6  9  1  0
  8  9  1  0
M  END
