
     RDKit          3D

 29 33  0  0  0  0  0  0  0  0999 V2000
   29.3278  -16.2006   -2.4945 C   0  0  0  0  0  0  0  0  0  0  0  0
   29.4153  -16.7913   -1.2224 C   0  0  0  0  0  0  0  0  0  0  0  0
   21.0351  -19.7854    1.9359 C   0  0  0  0  0  0  0  0  0  0  0  0
   28.2265  -17.0699   -0.5345 C   0  0  0  0  0  0  0  0  0  0  0  0
   30.5766  -17.1731   -0.4668 C   0  0  0  0  0  0  0  0  0  0  0  0
   30.2654  -17.7046    0.7602 C   0  0  0  0  0  0  0  0  0  0  0  0
   21.3303  -19.7220    0.4411 C   0  0  2  0  0  0  0  0  0  0  0  0
   18.9043  -20.6730    2.9960 C   0  0  0  0  0  0  0  0  0  0  0  0
   17.9661  -20.1194    5.1683 C   0  0  0  0  0  0  0  0  0  0  0  0
   16.6831  -20.1088    4.6269 C   0  0  0  0  0  0  0  0  0  0  0  0
   20.0877  -20.9857    2.1024 C   0  0  1  0  0  0  0  0  0  0  0  0
   16.5035  -20.3816    3.2715 C   0  0  0  0  0  0  0  0  0  0  0  0
   17.6065  -20.6634    2.4619 C   0  0  0  0  0  0  0  0  0  0  0  0
   24.0019  -18.8274   -0.7930 C   0  0  0  0  0  0  0  0  0  0  0  0
   25.4108  -18.4690   -0.2757 C   0  0  0  0  0  0  0  0  0  0  0  0
   24.6236  -16.1657   -0.8527 C   0  0  0  0  0  0  0  0  0  0  0  0
   23.3426  -16.5362   -0.0878 C   0  0  0  0  0  0  0  0  0  0  0  0
   26.9486  -16.7814   -1.0925 C   0  0  0  0  0  0  0  0  0  0  0  0
   28.0676  -15.9185   -2.9773 C   0  0  0  0  0  0  0  0  0  0  0  0
   19.7070  -21.3911    0.6696 C   0  0  0  0  0  0  0  0  0  0  0  0
   21.6259  -18.2859   -0.0442 C   0  0  0  0  0  0  0  0  0  0  0  0
   19.0711  -20.3992    4.3642 C   0  0  0  0  0  0  0  0  0  0  0  0
   20.0852  -20.2474   -0.1504 N   0  0  0  0  0  0  0  0  0  0  0  0
   22.9546  -17.9425   -0.2697 N   0  0  0  0  0  0  0  0  0  0  0  0
   25.7366  -17.0401   -0.4434 N   0  0  0  0  0  0  0  0  0  0  0  0
   26.9268  -16.1865   -2.3184 N   0  0  0  0  0  0  0  0  0  0  0  0
   20.7236  -17.4636   -0.2241 O   0  0  0  0  0  0  0  0  0  0  0  0
   28.5860  -17.7482    1.0243 S   0  0  0  0  0  0  0  0  0  0  0  0
   18.1859  -19.7868    6.8428 Cl  0  0  0  0  0  0  0  0  0  0  0  0
  1  2  4  0
  2  4  4  0
  2  5  4  0
  5  6  4  0
  3  7  1  0
  9 10  4  0
 11  8  1  1
  3 11  1  0
 10 12  4  0
 12 13  4  0
  8 13  4  0
 14 15  1  0
 16 17  1  0
  4 18  4  0
  1 19  4  0
 11 20  1  0
  7 21  1  6
  9 22  4  0
  8 22  4  0
 20 23  1  0
  7 23  1  0
 17 24  1  0
 14 24  1  0
 21 24  1  0
 16 25  1  0
 15 25  1  0
 18 25  1  0
 18 26  4  0
 19 26  4  0
 21 27  2  0
  6 28  4  0
  4 28  4  0
  9 29  1  0
M  END
