1W2G_THM_B_1210
     RDKit          3D

 31 32  0  0  0  0  0  0  0  0999 V2000
   -2.5405    0.7973    3.0368 O   0  0  0  0  0  0  0  0  0  0  0  0
   -2.1793   -0.1479    2.0653 C   0  0  0  0  0  0  0  0  0  0  0  0
   -0.6605   -0.3630    2.0565 C   0  0  1  0  0  0  0  0  0  0  0  0
   -0.3375   -1.4057    1.1669 O   0  0  0  0  0  0  0  0  0  0  0  0
    0.1017    0.8803    1.6198 C   0  0  1  0  0  0  0  0  0  0  0  0
    0.3995    1.6983    2.7209 O   0  0  0  0  0  0  0  0  0  0  0  0
    1.3487    0.3016    1.0103 C   0  0  0  0  0  0  0  0  0  0  0  0
    0.9335   -1.1161    0.6183 C   0  0  2  0  0  0  0  0  0  0  0  0
    0.9014   -1.2618   -0.8528 N   0  0  0  0  0  0  0  0  0  0  0  0
    1.9708   -1.7898   -1.5329 C   0  0  0  0  0  0  0  0  0  0  0  0
    2.9955   -2.1862   -0.9119 O   0  0  0  0  0  0  0  0  0  0  0  0
    1.9424   -1.8862   -2.8901 N   0  0  0  0  0  0  0  0  0  0  0  0
    0.8731   -1.4534   -3.6071 C   0  0  0  0  0  0  0  0  0  0  0  0
    0.8839   -1.5498   -4.8646 O   0  0  0  0  0  0  0  0  0  0  0  0
   -0.2290   -0.8986   -2.9473 C   0  0  0  0  0  0  0  0  0  0  0  0
   -1.4121   -0.3720   -3.7115 C   0  0  0  0  0  0  0  0  0  0  0  0
   -0.1785   -0.7967   -1.5536 C   0  0  0  0  0  0  0  0  0  0  0  0
   -2.4665    1.6904    2.6100 H   0  0  0  0  0  0  0  0  0  0  0  0
   -2.5410    0.1577    1.0561 H   0  0  0  0  0  0  0  0  0  0  0  0
   -2.6747   -1.1099    2.3160 H   0  0  0  0  0  0  0  0  0  0  0  0
   -0.3373   -0.6667    3.0790 H   0  0  0  0  0  0  0  0  0  0  0  0
   -0.4704    1.4452    0.8458 H   0  0  0  0  0  0  0  0  0  0  0  0
    0.7484    2.5505    2.3503 H   0  0  0  0  0  0  0  0  0  0  0  0
    1.6878    0.9072    0.1409 H   0  0  0  0  0  0  0  0  0  0  0  0
    2.1691    0.2579    1.7616 H   0  0  0  0  0  0  0  0  0  0  0  0
    1.6518   -1.8391    1.0652 H   0  0  0  0  0  0  0  0  0  0  0  0
    2.7641   -2.2943   -3.3925 H   0  0  0  0  0  0  0  0  0  0  0  0
   -1.7366   -1.1141   -4.4713 H   0  0  0  0  0  0  0  0  0  0  0  0
   -2.2728   -0.1730   -3.0379 H   0  0  0  0  0  0  0  0  0  0  0  0
   -1.1323    0.5734   -4.2216 H   0  0  0  0  0  0  0  0  0  0  0  0
   -1.0100   -0.3388   -1.0311 H   0  0  0  0  0  0  0  0  0  0  0  0
  1  2  1  0
  3  2  1  0
  3  4  1  0
  3  5  1  0
  5  6  1  0
  5  7  1  0
  4  8  1  0
  7  8  1  0
  8  9  1  0
  9 10  1  0
 10 11  2  0
 10 12  1  0
 12 13  1  0
 13 14  2  0
 13 15  1  0
 15 16  1  0
  9 17  1  0
 15 17  2  0
  1 18  1  0
  2 19  1  0
  2 20  1  0
  3 21  1  1
  5 22  1  6
  6 23  1  0
  7 24  1  0
  7 25  1  0
  8 26  1  1
 12 27  1  0
 16 28  1  0
 16 29  1  0
 16 30  1  0
 17 31  1  0
M  END
