1YQY_915_A_782
     RDKit          3D

 23 24  0  0  0  0  0  0  0  0999 V2000
   30.5639   38.3309   22.5511 C   0  0  0  0  0  0  0  0  0  0  0  0
   31.6058   37.4175   22.4484 C   0  0  0  0  0  0  0  0  0  0  0  0
   32.3897   37.0926   23.5380 C   0  0  0  0  0  0  0  0  0  0  0  0
   32.1232   37.6964   24.7561 C   0  0  0  0  0  0  0  0  0  0  0  0
   31.1097   38.5986   24.9001 C   0  0  0  0  0  0  0  0  0  0  0  0
   30.3440   38.8969   23.7745 C   0  0  0  0  0  0  0  0  0  0  0  0
   32.8781   37.3946   25.8406 F   0  0  0  0  0  0  0  0  0  0  0  0
   33.5038   36.1212   23.4452 C   0  0  0  0  0  0  0  0  0  0  0  0
   29.6200   38.6839   21.1239 S   0  0  2  0  0  0  0  0  0  0  0  0
   30.5213   39.5789   19.9914 N   0  0  0  0  0  0  0  0  0  0  0  0
   30.6503   41.0084   20.3882 C   0  0  1  0  0  0  0  0  0  0  0  0
   32.0174   41.2148   20.9015 C   0  0  0  0  0  0  0  0  0  0  0  0
   32.3571   41.8604   22.0971 N   0  0  0  0  0  0  0  0  0  0  0  0
   33.6440   41.9181   22.5130 O   0  0  0  0  0  0  0  0  0  0  0  0
   32.9655   40.7623   20.1942 O   0  0  0  0  0  0  0  0  0  0  0  0
   28.3385   39.4035   21.4914 O   0  0  0  0  0  0  0  0  0  0  0  0
   29.2341   37.3859   20.4942 O   0  0  0  0  0  0  0  0  0  0  0  0
   30.4145   41.7477   19.1290 C   0  0  1  0  0  0  0  0  0  0  0  0
   29.0264   42.1776   18.8213 C   0  0  0  0  0  0  0  0  0  0  0  0
   28.9498   42.8871   17.4835 C   0  0  0  0  0  0  0  0  0  0  0  0
   29.9263   43.8657   17.3617 O   0  0  0  0  0  0  0  0  0  0  0  0
   31.2125   43.4256   17.6065 C   0  0  0  0  0  0  0  0  0  0  0  0
   31.2582   43.0313   19.0899 C   0  0  0  0  0  0  0  0  0  0  0  0
  1  2  2  0
  2  3  1  0
  3  4  2  0
  4  5  1  0
  1  6  1  0
  5  6  2  0
  4  7  1  0
  3  8  1  0
  1  9  1  0
  9 10  1  6
 11 10  1  6
 11 12  1  0
 12 13  1  0
 13 14  1  0
 12 15  2  0
  9 16  2  0
  9 17  2  0
 11 18  1  0
 18 19  1  1
 19 20  1  0
 20 21  1  0
 21 22  1  0
 18 23  1  0
 22 23  1  0
M  END
$$$$
