1YQY_915_A_782
     RDKit          3D

 23 24  0  0  0  0  0  0  0  0999 V2000
   26.9883   30.7179   17.8898 C   0  0  0  0  0  0  0  0  0  0  0  0
   25.8895   31.0907   17.1257 C   0  0  0  0  0  0  0  0  0  0  0  0
   24.6367   30.5573   17.3564 C   0  0  0  0  0  0  0  0  0  0  0  0
   24.4825   29.6308   18.3749 C   0  0  0  0  0  0  0  0  0  0  0  0
   25.5353   29.2375   19.1487 C   0  0  0  0  0  0  0  0  0  0  0  0
   26.7814   29.8012   18.8810 C   0  0  0  0  0  0  0  0  0  0  0  0
   23.2633   29.0926   18.6215 F   0  0  0  0  0  0  0  0  0  0  0  0
   23.4553   30.9440   16.5510 C   0  0  0  0  0  0  0  0  0  0  0  0
   28.5375   31.4423   17.5326 S   0  0  2  0  0  0  0  0  0  0  0  0
   29.1792   30.8438   16.0746 N   0  0  0  0  0  0  0  0  0  0  0  0
   30.0452   29.6525   16.2957 C   0  0  1  0  0  0  0  0  0  0  0  0
   29.2008   28.4496   16.1749 C   0  0  0  0  0  0  0  0  0  0  0  0
   29.2279   27.3381   17.0266 N   0  0  0  0  0  0  0  0  0  0  0  0
   28.4842   26.2395   16.7576 O   0  0  0  0  0  0  0  0  0  0  0  0
   28.3763   28.4267   15.2138 O   0  0  0  0  0  0  0  0  0  0  0  0
   29.5053   31.2350   18.6796 O   0  0  0  0  0  0  0  0  0  0  0  0
   28.3346   32.9145   17.3850 O   0  0  0  0  0  0  0  0  0  0  0  0
   31.0467   29.7370   15.2105 C   0  0  1  0  0  0  0  0  0  0  0  0
   32.1806   30.6816   15.3789 C   0  0  0  0  0  0  0  0  0  0  0  0
   33.0923   30.6744   14.1674 C   0  0  0  0  0  0  0  0  0  0  0  0
   33.4324   29.3843   13.7852 O   0  0  0  0  0  0  0  0  0  0  0  0
   32.3555   28.5419   13.5891 C   0  0  0  0  0  0  0  0  0  0  0  0
   31.6914   28.3645   14.9622 C   0  0  0  0  0  0  0  0  0  0  0  0
  1  2  2  0
  2  3  1  0
  3  4  2  0
  4  5  1  0
  1  6  1  0
  5  6  2  0
  4  7  1  0
  3  8  1  0
  1  9  1  0
  9 10  1  6
 11 10  1  6
 11 12  1  0
 12 13  1  0
 13 14  1  0
 12 15  2  0
  9 16  2  0
  9 17  2  0
 11 18  1  0
 18 19  1  1
 19 20  1  0
 20 21  1  0
 21 22  1  0
 18 23  1  0
 22 23  1  0
M  END
$$$$
