1YQY_915_A_782
     RDKit          3D

 23 24  0  0  0  0  0  0  0  0999 V2000
   14.1903   17.9923   10.0981 C   0  0  0  0  0  0  0  0  0  0  0  0
   14.4529   16.6404   10.2815 C   0  0  0  0  0  0  0  0  0  0  0  0
   14.6781   16.1139   11.5382 C   0  0  0  0  0  0  0  0  0  0  0  0
   14.6390   16.9608   12.6339 C   0  0  0  0  0  0  0  0  0  0  0  0
   14.3845   18.2944   12.4978 C   0  0  0  0  0  0  0  0  0  0  0  0
   14.1631   18.7829   11.2115 C   0  0  0  0  0  0  0  0  0  0  0  0
   14.8567   16.4686   13.8778 F   0  0  0  0  0  0  0  0  0  0  0  0
   14.9594   14.6753   11.7507 C   0  0  0  0  0  0  0  0  0  0  0  0
   13.9150   18.5761    8.4746 S   0  0  2  0  0  0  0  0  0  0  0  0
   12.2762   18.9598    8.2242 N   0  0  0  0  0  0  0  0  0  0  0  0
   11.4410   17.7402    8.0424 C   0  0  1  0  0  0  0  0  0  0  0  0
   11.1179   17.2086    9.3795 C   0  0  0  0  0  0  0  0  0  0  0  0
   11.4106   15.9202    9.8440 N   0  0  0  0  0  0  0  0  0  0  0  0
   11.0450   15.5314   11.0880 O   0  0  0  0  0  0  0  0  0  0  0  0
   10.5247   17.9941   10.1765 O   0  0  0  0  0  0  0  0  0  0  0  0
   14.4015   17.5700    7.4517 O   0  0  0  0  0  0  0  0  0  0  0  0
   14.7203   19.8202    8.2897 O   0  0  0  0  0  0  0  0  0  0  0  0
   10.2385   18.2367    7.3387 C   0  0  1  0  0  0  0  0  0  0  0  0
   10.2948   18.3560    5.8592 C   0  0  0  0  0  0  0  0  0  0  0  0
    9.0004   18.9116    5.2985 C   0  0  0  0  0  0  0  0  0  0  0  0
    7.8913   18.2521    5.8096 O   0  0  0  0  0  0  0  0  0  0  0  0
    7.8414   18.1990    7.1889 C   0  0  0  0  0  0  0  0  0  0  0  0
    9.0303   17.3332    7.6304 C   0  0  0  0  0  0  0  0  0  0  0  0
  1  2  2  0
  2  3  1  0
  3  4  2  0
  4  5  1  0
  1  6  1  0
  5  6  2  0
  4  7  1  0
  3  8  1  0
  1  9  1  0
  9 10  1  6
 11 10  1  1
 11 12  1  0
 12 13  1  0
 13 14  1  0
 12 15  2  0
  9 16  2  0
  9 17  2  0
 11 18  1  0
 18 19  1  6
 19 20  1  0
 20 21  1  0
 21 22  1  0
 18 23  1  0
 22 23  1  0
M  END
$$$$
