1YQY_915_A_782
     RDKit          3D

 23 24  0  0  0  0  0  0  0  0999 V2000
    9.0600   19.7772   27.4591 C   0  0  0  0  0  0  0  0  0  0  0  0
    9.6030   20.9232   28.0266 C   0  0  0  0  0  0  0  0  0  0  0  0
    9.0535   21.4983   29.1556 C   0  0  0  0  0  0  0  0  0  0  0  0
    7.9361   20.9118   29.7274 C   0  0  0  0  0  0  0  0  0  0  0  0
    7.3718   19.7861   29.2019 C   0  0  0  0  0  0  0  0  0  0  0  0
    7.9588   19.2395   28.0622 C   0  0  0  0  0  0  0  0  0  0  0  0
    7.3780   21.4569   30.8357 F   0  0  0  0  0  0  0  0  0  0  0  0
    9.6201   22.7196   29.7729 C   0  0  0  0  0  0  0  0  0  0  0  0
    9.8180   19.1133   26.0318 S   0  0  2  0  0  0  0  0  0  0  0  0
   10.5805   17.6299   26.3690 N   0  0  0  0  0  0  0  0  0  0  0  0
   12.0350   17.6674   26.0513 C   0  0  1  0  0  0  0  0  0  0  0  0
   12.7503   18.1278   27.2559 C   0  0  0  0  0  0  0  0  0  0  0  0
   13.8051   19.0488   27.2831 N   0  0  0  0  0  0  0  0  0  0  0  0
   14.3955   19.3932   28.4514 O   0  0  0  0  0  0  0  0  0  0  0  0
   12.3697   17.6455   28.3634 O   0  0  0  0  0  0  0  0  0  0  0  0
   10.7946   20.1039   25.4315 O   0  0  0  0  0  0  0  0  0  0  0  0
    8.7518   18.8708   25.0146 O   0  0  0  0  0  0  0  0  0  0  0  0
   12.3603   16.2637   25.7171 C   0  0  1  0  0  0  0  0  0  0  0  0
   11.8900   15.7294   24.4134 C   0  0  0  0  0  0  0  0  0  0  0  0
   12.2722   14.2723   24.2414 C   0  0  0  0  0  0  0  0  0  0  0  0
   13.6099   14.0512   24.5377 O   0  0  0  0  0  0  0  0  0  0  0  0
   14.0069   14.5158   25.7763 C   0  0  0  0  0  0  0  0  0  0  0  0
   13.8812   16.0453   25.7237 C   0  0  0  0  0  0  0  0  0  0  0  0
  1  2  2  0
  2  3  1  0
  3  4  2  0
  4  5  1  0
  1  6  1  0
  5  6  2  0
  4  7  1  0
  3  8  1  0
  1  9  1  0
  9 10  1  1
 11 10  1  1
 11 12  1  0
 12 13  1  0
 13 14  1  0
 12 15  2  0
  9 16  2  0
  9 17  2  0
 11 18  1  0
 18 19  1  6
 19 20  1  0
 20 21  1  0
 21 22  1  0
 18 23  1  0
 22 23  1  0
M  END
$$$$
