7UY4_SMI_A_302
     RDKit          3D

 50 52  0  0  0  0  0  0  0  0999 V2000
    1.8617    1.0420    0.1305 O   0  0  0  0  0  0  0  0  0  0  0  0
    2.8961    1.4729   -0.7293 C   0  0  2  0  0  0  0  0  0  0  0  0
    2.7446    2.9766   -0.9550 C   0  0  0  0  0  0  0  0  0  0  0  0
    2.8146    0.7260   -2.0709 C   0  0  0  0  0  0  0  0  0  0  0  0
    2.9139   -0.7989   -1.8761 C   0  0  0  0  0  0  0  0  0  0  0  0
    1.9492   -1.2777   -0.7434 C   0  0  1  0  0  0  0  0  0  0  0  0
    2.3203   -2.6025   -0.4110 O   0  0  0  0  0  0  0  0  0  0  0  0
    2.0415   -0.3180    0.4963 C   0  0  2  0  0  0  0  0  0  0  0  0
    0.6262   -1.2627   -1.2648 O   0  0  0  0  0  0  0  0  0  0  0  0
    1.0737   -0.6718    1.4694 O   0  0  0  0  0  0  0  0  0  0  0  0
   -0.3277   -1.6114   -0.2787 C   0  0  2  0  0  0  0  0  0  0  0  0
   -1.7480   -1.5745   -0.8938 C   0  0  1  0  0  0  0  0  0  0  0  0
   -1.8202   -2.5004   -2.0484 N   0  0  0  0  0  0  0  0  0  0  0  0
   -1.6635   -1.7959   -3.3253 C   0  0  0  0  0  0  0  0  0  0  0  0
   -2.7988   -1.9502    0.1885 C   0  0  1  0  0  0  0  0  0  0  0  0
   -2.6117   -3.2846    0.5928 O   0  0  0  0  0  0  0  0  0  0  0  0
   -2.6882   -0.9971    1.4024 C   0  0  1  0  0  0  0  0  0  0  0  0
   -3.7699   -1.2464    2.3851 N   0  0  0  0  0  0  0  0  0  0  0  0
   -3.4907   -2.2756    3.3949 C   0  0  0  0  0  0  0  0  0  0  0  0
   -1.2577   -0.9914    2.0038 C   0  0  2  0  0  0  0  0  0  0  0  0
   -1.1968   -0.0417    3.0378 O   0  0  0  0  0  0  0  0  0  0  0  0
   -0.2290   -0.6301    0.9139 C   0  0  1  0  0  0  0  0  0  0  0  0
    4.2533   -1.1596   -1.6057 O   0  0  0  0  0  0  0  0  0  0  0  0
    2.5401   -1.4012   -3.0921 O   0  0  0  0  0  0  0  0  0  0  0  0
    3.8933    1.3206   -0.2570 H   0  0  0  0  0  0  0  0  0  0  0  0
    1.7587    3.2049   -1.4141 H   0  0  0  0  0  0  0  0  0  0  0  0
    2.8153    3.5106    0.0164 H   0  0  0  0  0  0  0  0  0  0  0  0
    3.5515    3.3506   -1.6209 H   0  0  0  0  0  0  0  0  0  0  0  0
    1.8441    0.9672   -2.5606 H   0  0  0  0  0  0  0  0  0  0  0  0
    3.6306    1.0672   -2.7455 H   0  0  0  0  0  0  0  0  0  0  0  0
    2.1037   -2.7805    0.5402 H   0  0  0  0  0  0  0  0  0  0  0  0
    3.0323   -0.4439    0.9872 H   0  0  0  0  0  0  0  0  0  0  0  0
   -0.1436   -2.6518    0.0734 H   0  0  0  0  0  0  0  0  0  0  0  0
   -1.9666   -0.5280   -1.2156 H   0  0  0  0  0  0  0  0  0  0  0  0
   -2.7587   -2.9626   -2.0889 H   0  0  0  0  0  0  0  0  0  0  0  0
   -1.6751   -2.5339   -4.1549 H   0  0  0  0  0  0  0  0  0  0  0  0
   -2.4984   -1.0778   -3.4828 H   0  0  0  0  0  0  0  0  0  0  0  0
   -0.6968   -1.2538   -3.3675 H   0  0  0  0  0  0  0  0  0  0  0  0
   -3.8181   -1.8141   -0.2483 H   0  0  0  0  0  0  0  0  0  0  0  0
   -3.2628   -3.8423    0.0927 H   0  0  0  0  0  0  0  0  0  0  0  0
   -2.8632    0.0275    0.9967 H   0  0  0  0  0  0  0  0  0  0  0  0
   -3.9663   -0.3537    2.8965 H   0  0  0  0  0  0  0  0  0  0  0  0
   -2.7342   -1.9221    4.1275 H   0  0  0  0  0  0  0  0  0  0  0  0
   -3.1542   -3.2239    2.9349 H   0  0  0  0  0  0  0  0  0  0  0  0
   -4.4248   -2.4918    3.9541 H   0  0  0  0  0  0  0  0  0  0  0  0
   -1.0128   -2.0064    2.3968 H   0  0  0  0  0  0  0  0  0  0  0  0
   -0.4433   -0.3043    3.6285 H   0  0  0  0  0  0  0  0  0  0  0  0
   -0.4618    0.4030    0.5634 H   0  0  0  0  0  0  0  0  0  0  0  0
    4.5009   -0.8323   -0.7050 H   0  0  0  0  0  0  0  0  0  0  0  0
    2.7226   -2.3741   -3.0121 H   0  0  0  0  0  0  0  0  0  0  0  0
  1  2  1  0
  2  3  1  0
  2  4  1  0
  4  5  1  0
  5  6  1  0
  6  7  1  1
  8  1  1  0
  6  8  1  0
  6  9  1  0
  8 10  1  0
 11  9  1  0
 11 12  1  0
 12 13  1  0
 13 14  1  0
 12 15  1  0
 15 16  1  0
 15 17  1  0
 17 18  1  0
 18 19  1  0
 17 20  1  0
 20 21  1  0
 22 10  1  0
 11 22  1  0
 20 22  1  0
  5 23  1  0
  5 24  1  0
  2 25  1  1
  3 26  1  0
  3 27  1  0
  3 28  1  0
  4 29  1  0
  4 30  1  0
  7 31  1  0
  8 32  1  1
 11 33  1  1
 12 34  1  6
 13 35  1  0
 14 36  1  0
 14 37  1  0
 14 38  1  0
 15 39  1  6
 16 40  1  0
 17 41  1  6
 18 42  1  0
 19 43  1  0
 19 44  1  0
 19 45  1  0
 20 46  1  1
 21 47  1  0
 22 48  1  6
 23 49  1  0
 24 50  1  0
M  END
