7QE4_NGA_BBB_404
     RDKit          3D

 15 15  0  0  0  0  0  0  0  0999 V2000
   48.2920   19.1160   73.7620 C   0  0  2  0  0  0  0  0  0  0  0  0
   49.4160   19.8700   74.4770 C   0  0  1  0  0  0  0  0  0  0  0  0
   49.7470   19.1990   75.8090 C   0  0  2  0  0  0  0  0  0  0  0  0
   48.4810   19.0340   76.6300 C   0  0  2  0  0  0  0  0  0  0  0  0
   47.4850   18.2660   75.7800 C   0  0  1  0  0  0  0  0  0  0  0  0
   46.2200   17.9530   76.5590 C   0  0  0  0  0  0  0  0  0  0  0  0
   51.3600   21.0010   73.5080 C   0  0  0  0  0  0  0  0  0  0  0  0
   52.5570   20.8110   72.6220 C   0  0  0  0  0  0  0  0  0  0  0  0
   50.6040   19.9070   73.6470 N   0  0  0  0  0  0  0  0  0  0  0  0
   47.8960   19.7490   72.5400 O   0  0  0  0  0  0  0  0  0  0  0  0
   50.6760   19.9710   76.5680 O   0  0  0  0  0  0  0  0  0  0  0  0
   48.0120   20.3440   77.0040 O   0  0  0  0  0  0  0  0  0  0  0  0
   47.1610   19.0320   74.6220 O   0  0  0  0  0  0  0  0  0  0  0  0
   45.7820   19.1860   77.1210 O   0  0  0  0  0  0  0  0  0  0  0  0
   51.1170   22.0780   74.0480 O   0  0  0  0  0  0  0  0  0  0  0  0
  1  2  1  0
  2  3  1  0
  3  4  1  0
  4  5  1  0
  5  6  1  1
  7  8  1  0
  2  9  1  6
  7  9  1  0
  1 10  1  6
  3 11  1  1
  4 12  1  6
  1 13  1  0
  5 13  1  0
  6 14  1  0
  7 15  2  0
M  END
$$$$
7QE4_NGA_AAA_404
     RDKit          3D

 15 15  0  0  0  0  0  0  0  0999 V2000
   48.9880   10.3940  195.2850 C   0  0  2  0  0  0  0  0  0  0  0  0
   49.9820    9.6740  194.3780 C   0  0  1  0  0  0  0  0  0  0  0  0
   50.0560   10.3320  193.0090 C   0  0  2  0  0  0  0  0  0  0  0  0
   48.6540   10.4470  192.4290 C   0  0  2  0  0  0  0  0  0  0  0  0
   47.7910   11.2190  193.4050 C   0  0  1  0  0  0  0  0  0  0  0  0
   46.3830   11.4580  192.8580 C   0  0  0  0  0  0  0  0  0  0  0  0
   51.9790    8.5080  195.1530 C   0  0  0  0  0  0  0  0  0  0  0  0
   53.4260    8.6590  195.5230 C   0  0  0  0  0  0  0  0  0  0  0  0
   51.3320    9.6500  194.9240 N   0  0  0  0  0  0  0  0  0  0  0  0
   48.8460    9.6880  196.5250 O   0  0  0  0  0  0  0  0  0  0  0  0
   50.8580    9.5420  192.1350 O   0  0  0  0  0  0  0  0  0  0  0  0
   48.1600    9.1210  192.2370 O   0  0  0  0  0  0  0  0  0  0  0  0
   47.7110   10.4830  194.6360 O   0  0  0  0  0  0  0  0  0  0  0  0
   45.6310   12.1790  193.8480 O   0  0  0  0  0  0  0  0  0  0  0  0
   51.4750    7.4030  195.0520 O   0  0  0  0  0  0  0  0  0  0  0  0
  1  2  1  0
  2  3  1  0
  3  4  1  0
  4  5  1  0
  5  6  1  6
  7  8  1  0
  2  9  1  1
  7  9  1  0
  1 10  1  1
  3 11  1  6
  4 12  1  1
  1 13  1  0
  5 13  1  0
  6 14  1  0
  7 15  2  0
M  END
$$$$
