
     RDKit          3D

 11 10  0  0  0  0  0  0  0  0999 V2000
  -31.7825   31.6842    3.0608 N   0  0  0  0  0  0  0  0  0  0  0  0
  -30.6951   30.7641    3.4932 C   0  0  0  0  0  0  0  0  0  0  0  0
  -29.3493   31.4735    3.4762 C   0  0  0  0  0  0  0  0  0  0  0  0
  -28.4228   31.2419    2.7159 O   0  0  0  0  0  0  0  0  0  0  0  0
  -29.2560   32.4606    4.3955 O   0  0  0  0  0  0  0  0  0  0  0  0
  -32.9569   30.9015    2.6062 C   0  0  0  0  0  0  0  0  0  0  0  0
  -33.5239   30.0487    3.7522 C   0  0  0  0  0  0  0  0  0  0  0  0
  -33.0093   30.5155    4.9983 O   0  0  0  0  0  0  0  0  0  0  0  0
  -31.2893   32.5983    2.0062 C   0  0  0  0  0  0  0  0  0  0  0  0
  -31.6358   32.0496    0.6126 C   0  0  0  0  0  0  0  0  0  0  0  0
  -32.9888   32.3261    0.2658 O   0  0  0  0  0  0  0  0  0  0  0  0
  1  2  1  0
  2  3  1  0
  3  4  2  0
  3  5  1  0
  1  6  1  0
  6  7  1  0
  7  8  1  0
  1  9  1  0
  9 10  1  0
 10 11  1  0
M  END
