7T9O_GEI_A_304
     RDKit          3D

 41 44  0  0  0  0  0  0  0  0999 V2000
    2.5380   32.7380    7.2760 C   0  0  0  0  0  0  0  0  0  0  0  0
    2.5930   31.4620    8.1270 C   0  0  0  0  0  0  0  0  0  0  0  0
    1.2600   30.7370    8.2360 C   0  0  0  0  0  0  0  0  0  0  0  0
    1.8300   32.4100    5.9550 C   0  0  0  0  0  0  0  0  0  0  0  0
    0.5250   31.6480    6.0940 C   0  0  0  0  0  0  0  0  0  0  0  0
    3.9590   33.2230    6.9770 C   0  0  0  0  0  0  0  0  0  0  0  0
    1.7840   33.8310    8.0360 C   0  0  0  0  0  0  0  0  0  0  0  0
    3.1270   27.8270    4.6440 C   0  0  0  0  0  0  0  0  0  0  0  0
    3.6780   26.6650    3.8500 C   0  0  0  0  0  0  0  0  0  0  0  0
   -2.2560   30.6160    6.6780 C   0  0  0  0  0  0  0  0  0  0  0  0
    2.2670   27.2300    8.2740 C   0  0  0  0  0  0  0  0  0  0  0  0
   -5.0760   36.1680    8.4160 C   0  0  0  0  0  0  0  0  0  0  0  0
   -2.3110   31.2090    7.9380 C   0  0  0  0  0  0  0  0  0  0  0  0
   -4.2560   34.8880    8.4730 C   0  0  0  0  0  0  0  0  0  0  0  0
   -1.4640   29.3640    6.4580 C   0  0  0  0  0  0  0  0  0  0  0  0
   -2.1710   28.1930    6.1520 C   0  0  0  0  0  0  0  0  0  0  0  0
   -1.5740   26.9970    6.1120 N   0  0  0  0  0  0  0  0  0  0  0  0
   -0.2730   26.8890    6.3920 C   0  0  0  0  0  0  0  0  0  0  0  0
    0.5370   28.0180    6.6770 C   0  0  0  0  0  0  0  0  0  0  0  0
   -0.0790   29.2830    6.6950 C   0  0  0  0  0  0  0  0  0  0  0  0
    0.6970   30.4470    6.9130 N   0  0  0  0  0  0  0  0  0  0  0  0
    2.0540   27.8910    6.9160 C   0  0  2  0  0  0  0  0  0  0  0  0
    0.2620   25.4870    6.4140 C   0  0  0  0  0  0  0  0  0  0  0  0
   -3.6520   28.1810    5.9120 C   0  0  0  0  0  0  0  0  0  0  0  0
    3.3110   26.4620    8.3270 O   0  0  0  0  0  0  0  0  0  0  0  0
    2.7080   27.1680    5.8710 O   0  0  0  0  0  0  0  0  0  0  0  0
    1.5190   27.4310    9.2190 O   0  0  0  0  0  0  0  0  0  0  0  0
    1.9520   28.4600    3.9250 C   0  0  0  0  0  0  0  0  0  0  0  0
    4.1990   28.8620    4.9260 C   0  0  0  0  0  0  0  0  0  0  0  0
   -2.9840   32.3980    8.1420 C   0  0  0  0  0  0  0  0  0  0  0  0
   -3.6400   33.0060    7.0840 C   0  0  0  0  0  0  0  0  0  0  0  0
   -3.6260   32.4210    5.8270 C   0  0  0  0  0  0  0  0  0  0  0  0
   -2.9430   31.2350    5.6310 C   0  0  0  0  0  0  0  0  0  0  0  0
   -4.2900   34.2070    7.2020 O   0  0  0  0  0  0  0  0  0  0  0  0
   -4.5240   37.1850    7.4510 C   0  0  0  0  0  0  0  0  0  0  0  0
   -3.5840   38.1180    7.8590 C   0  0  0  0  0  0  0  0  0  0  0  0
   -3.0710   39.0510    6.9750 C   0  0  0  0  0  0  0  0  0  0  0  0
   -3.5090   39.0230    5.6820 C   0  0  0  0  0  0  0  0  0  0  0  0
   -4.4260   38.1210    5.2290 C   0  0  0  0  0  0  0  0  0  0  0  0
   -4.9370   37.2010    6.1280 C   0  0  0  0  0  0  0  0  0  0  0  0
   -3.0140   39.9350    4.8090 F   0  0  0  0  0  0  0  0  0  0  0  0
  1  2  1  0
  2  3  1  0
  1  4  1  0
  4  5  1  0
  1  6  1  0
  1  7  1  0
  8  9  1  0
 10 13  2  0
 12 14  1  0
 10 15  1  0
 15 16  2  0
 16 17  1  0
 17 18  2  0
 18 19  1  0
 15 20  1  0
 19 20  2  0
  5 21  1  0
 20 21  1  0
  3 21  1  0
 19 22  1  0
 11 22  1  0
 18 23  1  0
 16 24  1  0
 11 25  1  0
  8 26  1  0
 22 26  1  6
 11 27  2  0
  8 28  1  0
  8 29  1  0
 13 30  1  0
 30 31  2  0
 31 32  1  0
 32 33  2  0
 10 33  1  0
 31 34  1  0
 14 34  1  0
 12 35  1  0
 35 36  2  0
 36 37  1  0
 37 38  2  0
 38 39  1  0
 39 40  2  0
 35 40  1  0
 38 41  1  0
M  END
$$$$
