7ZXZ_K9R_B_201
     RDKit          3D

 33 36  0  0  0  0  0  0  0  0999 V2000
   50.6142  -21.1880    7.8644 N   0  0  0  0  0  0  0  0  0  0  0  0
   46.0945  -22.9605   13.3086 C   0  0  0  0  0  0  0  0  0  0  0  0
   44.8316  -23.6876   13.6213 C   0  0  0  0  0  0  0  0  0  0  0  0
   44.0626  -22.0292   15.2929 N   0  0  0  0  0  0  0  0  0  0  0  0
   43.7453  -22.8750   14.1911 C   0  0  0  0  0  0  0  0  0  0  0  0
   41.3681  -21.2540   15.0382 O   0  0  0  0  0  0  0  0  0  0  0  0
   49.4017  -21.6972    9.7090 C   0  0  2  0  0  0  0  0  0  0  0  0
   47.7332  -22.3578   11.4823 C   0  0  0  0  0  0  0  0  0  0  0  0
   46.4961  -23.0617   11.8536 C   0  0  0  0  0  0  0  0  0  0  0  0
   48.0031  -21.9403   10.1261 C   0  0  2  0  0  0  0  0  0  0  0  0
   48.4547  -22.0881    7.4865 C   0  0  0  0  0  0  0  0  0  0  0  0
   42.5557  -22.8590   13.7942 O   0  0  0  0  0  0  0  0  0  0  0  0
   49.2228  -21.1047    8.3062 C   0  0  2  0  0  0  0  0  0  0  0  0
   50.1940  -22.8544    9.3702 N   0  0  0  0  0  0  0  0  0  0  0  0
   47.4507  -22.9579    8.7658 S   0  0  0  0  0  0  0  0  0  0  0  0
   51.0101  -22.5272    8.2342 C   0  0  0  0  0  0  0  0  0  0  0  0
   51.8851  -23.2307    7.6649 O   0  0  0  0  0  0  0  0  0  0  0  0
   43.6945  -20.6318   15.2555 C   0  0  2  0  0  0  0  0  0  0  0  0
   44.2267  -19.8587   16.4090 C   0  0  0  0  0  0  0  0  0  0  0  0
   43.1849  -18.8376   16.7542 C   0  0  0  0  0  0  0  0  0  0  0  0
   43.3140  -17.8990   17.5197 O   0  0  0  0  0  0  0  0  0  0  0  0
   41.9232  -19.1159   16.0218 C   0  0  1  0  0  0  0  0  0  0  0  0
   42.2248  -20.4338   15.3949 C   0  0  0  0  0  0  0  0  0  0  0  0
   40.7326  -19.1960   16.9079 C   0  0  0  0  0  0  0  0  0  0  0  0
   40.7355  -19.9244   18.0959 C   0  0  0  0  0  0  0  0  0  0  0  0
   39.5751  -19.9118   18.8282 C   0  0  0  0  0  0  0  0  0  0  0  0
   39.5435  -20.6704   20.0960 C   0  0  0  0  0  0  0  0  0  0  0  0
   40.9799  -21.7558   20.3120 S   0  0  0  0  0  0  0  0  0  0  0  0
   38.4362  -19.2262   18.4463 C   0  0  0  0  0  0  0  0  0  0  0  0
   38.4401  -18.5017   17.2601 C   0  0  0  0  0  0  0  0  0  0  0  0
   39.5975  -18.5164   16.5331 C   0  0  0  0  0  0  0  0  0  0  0  0
   37.2378  -17.7475   16.8142 C   0  0  0  0  0  0  0  0  0  0  0  0
   37.5983  -16.8044   15.2906 S   0  0  0  0  0  0  0  0  0  0  0  0
  2  3  1  1
  3  5  1  1
  4  5  1  0
  8  9  1  1
  9  2  1  1
  7 10  1  0
 10  8  1  0
  5 12  2  0
 13  1  1  6
 13 11  1  0
  7 13  1  0
  7 14  1  6
 11 15  1  6
 10 15  1  6
  1 16  1  0
 14 16  1  0
 16 17  2  0
 18  4  1  1
 18 19  1  0
 19 20  1  6
 20 21  2  0
 20 22  1  0
 18 23  1  0
 22 23  1  0
  6 23  2  0
 22 24  1  1
 24 25  2  0
 25 26  1  0
 26 27  1  0
 27 28  1  1
 26 29  2  0
 29 30  1  0
 24 31  1  0
 30 31  2  0
 30 32  1  0
 32 33  1  1
M  END
$$$$
