7PT3_3KK_A_702
     RDKit          3D

 96 98  0  0  0  0  0  0  0  0999 V2000
  -12.1332  -25.8158   20.1166 C   0  0  2  0  0  0  0  0  0  0  0  0
  -10.8119  -26.1652   19.4015 C   0  0  2  0  0  0  0  0  0  0  0  0
  -10.7240  -27.6940   19.1832 C   0  0  1  0  0  0  0  0  0  0  0  0
   -9.7195  -25.7543   20.1942 O   0  0  0  0  0  0  0  0  0  0  0  0
  -10.7432  -25.3951   18.0931 C   0  0  0  0  0  0  0  0  0  0  0  0
   -9.6503  -25.0567   17.6608 O   0  0  0  0  0  0  0  0  0  0  0  0
  -12.1995  -25.0095   17.1035 S   0  0  0  0  0  0  0  0  0  0  0  0
  -12.8267  -26.7206   17.1235 C   0  0  1  0  0  0  0  0  0  0  0  0
  -11.6709  -27.6868   17.3807 C   0  0  2  0  0  0  0  0  0  0  0  0
  -10.6004  -27.4632   16.4131 N   0  0  0  0  0  0  0  0  0  0  0  0
  -10.2308  -28.4520   15.4415 C   0  0  0  0  0  0  0  0  0  0  0  0
  -10.3447  -29.6789   15.7088 O   0  0  0  0  0  0  0  0  0  0  0  0
   -9.7404  -28.0273   14.0859 C   0  0  2  0  0  0  0  0  0  0  0  0
  -10.2006  -26.6075   13.7329 C   0  0  2  0  0  0  0  0  0  0  0  0
  -11.1393  -26.6107   12.6068 N   0  0  0  0  0  0  0  0  0  0  0  0
  -11.3774  -25.4307   11.8228 C   0  0  0  0  0  0  0  0  0  0  0  0
  -11.4739  -25.5188   10.5677 O   0  0  0  0  0  0  0  0  0  0  0  0
  -11.5598  -24.0851   12.4905 C   0  0  2  0  0  0  0  0  0  0  0  0
  -10.4679  -23.2602   12.1624 O   0  0  0  0  0  0  0  0  0  0  0  0
  -11.7399  -24.2011   14.0492 C   0  0  1  0  0  0  0  0  0  0  0  0
  -10.6213  -23.4141   14.7668 C   0  0  2  0  0  0  0  0  0  0  0  0
  -13.0919  -23.5694   14.4574 C   0  0  1  0  0  0  0  0  0  0  0  0
  -11.7170  -25.6724   14.5428 C   0  0  1  0  0  0  0  0  0  0  0  0
  -10.4025  -26.0769   14.8468 O   0  0  0  0  0  0  0  0  0  0  0  0
  -10.0426  -27.4964   13.9708 P   0  0  2  0  0  5  0  0  0  0  0  0
   -8.6394  -28.1758   14.6334 O   0  0  0  0  0  0  0  0  0  0  0  0
   -9.7621  -27.1095   12.5392 O   0  0  0  0  0  0  0  0  0  0  0  0
  -11.3737  -28.5689   13.9967 O   0  0  0  0  0  0  0  0  0  0  0  0
  -10.7757  -30.1545   14.0836 P   0  0  2  0  0  5  0  0  0  0  0  0
  -10.1428  -30.3462   15.4449 O   0  0  0  0  0  0  0  0  0  0  0  0
   -9.5668  -30.3687   12.9226 O   0  0  0  0  0  0  0  0  0  0  0  0
  -12.0253  -31.2901   13.8101 O   0  0  0  0  0  0  0  0  0  0  0  0
  -12.0776  -32.1852   14.8954 C   0  0  1  0  0  0  0  0  0  0  0  0
  -12.8835  -33.4282   14.5004 C   0  0  1  0  0  0  0  0  0  0  0  0
  -13.9785  -33.5666   15.3851 O   0  0  0  0  0  0  0  0  0  0  0  0
  -13.3952  -33.3617   13.0531 C   0  0  1  0  0  0  0  0  0  0  0  0
  -13.2599  -34.6459   12.4637 O   0  0  0  0  0  0  0  0  0  0  0  0
  -12.7526  -34.4968   10.8442 P   0  0  1  0  0  5  0  0  0  0  0  0
  -13.9514  -34.3620    9.9247 O   0  0  0  0  0  0  0  0  0  0  0  0
  -11.7598  -33.1353   10.6848 O   0  0  0  0  0  0  0  0  0  0  0  0
  -11.8756  -35.8801   10.4179 O   0  0  0  0  0  0  0  0  0  0  0  0
  -14.8569  -33.0223   13.2476 C   0  0  1  0  0  0  0  0  0  0  0  0
  -15.6899  -33.5336   12.2293 O   0  0  0  0  0  0  0  0  0  0  0  0
  -15.1601  -33.6057   14.6234 C   0  0  2  0  0  0  0  0  0  0  0  0
  -16.2182  -32.8551   15.3057 N   0  0  0  0  0  0  0  0  0  0  0  0
  -16.4141  -32.7448   16.6491 C   0  0  0  0  0  0  0  0  0  0  0  0
  -17.4462  -31.9200   16.9806 N   0  0  0  0  0  0  0  0  0  0  0  0
  -17.9026  -31.5208   15.7766 C   0  0  0  0  0  0  0  0  0  0  0  0
  -17.1741  -32.0772   14.7827 C   0  0  0  0  0  0  0  0  0  0  0  0
  -17.4051  -31.8150   13.4719 N   0  0  0  0  0  0  0  0  0  0  0  0
  -18.4238  -30.9570   13.1567 C   0  0  0  0  0  0  0  0  0  0  0  0
  -19.1737  -30.3778   14.1481 N   0  0  0  0  0  0  0  0  0  0  0  0
  -18.9349  -30.6422   15.4703 C   0  0  0  0  0  0  0  0  0  0  0  0
  -19.7069  -30.0015   16.4836 N   0  0  0  0  0  0  0  0  0  0  0  0
  -13.0138  -26.0844   19.4888 H   0  0  0  0  0  0  0  0  0  0  0  0
  -12.1770  -24.7275   20.3395 H   0  0  0  0  0  0  0  0  0  0  0  0
  -12.2116  -26.3648   21.0819 H   0  0  0  0  0  0  0  0  0  0  0  0
  -11.0401  -27.9543   18.1467 H   0  0  0  0  0  0  0  0  0  0  0  0
   -9.6801  -28.0462   19.3188 H   0  0  0  0  0  0  0  0  0  0  0  0
  -11.3691  -28.2401   19.9067 H   0  0  0  0  0  0  0  0  0  0  0  0
   -9.2146  -26.5645   20.4671 H   0  0  0  0  0  0  0  0  0  0  0  0
  -13.5907  -26.8292   17.9233 H   0  0  0  0  0  0  0  0  0  0  0  0
  -13.2943  -26.9491   16.1414 H   0  0  0  0  0  0  0  0  0  0  0  0
  -12.0252  -28.7411   17.3148 H   0  0  0  0  0  0  0  0  0  0  0  0
  -11.2765  -27.5167   18.4088 H   0  0  0  0  0  0  0  0  0  0  0  0
  -10.0580  -26.5693   16.4657 H   0  0  0  0  0  0  0  0  0  0  0  0
  -10.0957  -28.7417   13.3151 H   0  0  0  0  0  0  0  0  0  0  0  0
   -8.6319  -28.0591   14.0748 H   0  0  0  0  0  0  0  0  0  0  0  0
   -9.2999  -26.0147   13.4550 H   0  0  0  0  0  0  0  0  0  0  0  0
  -10.6789  -26.1231   14.6119 H   0  0  0  0  0  0  0  0  0  0  0  0
  -11.5828  -27.5086   12.3065 H   0  0  0  0  0  0  0  0  0  0  0  0
  -12.4933  -23.6385   12.0617 H   0  0  0  0  0  0  0  0  0  0  0  0
  -10.0584  -22.9545   13.0157 H   0  0  0  0  0  0  0  0  0  0  0  0
  -10.5119  -22.4010   14.3284 H   0  0  0  0  0  0  0  0  0  0  0  0
   -9.6432  -23.9344   14.6833 H   0  0  0  0  0  0  0  0  0  0  0  0
  -10.8492  -23.2971   15.8491 H   0  0  0  0  0  0  0  0  0  0  0  0
  -13.5222  -24.0917   15.3373 H   0  0  0  0  0  0  0  0  0  0  0  0
  -12.9646  -22.4972   14.7220 H   0  0  0  0  0  0  0  0  0  0  0  0
  -13.8329  -23.6401   13.6327 H   0  0  0  0  0  0  0  0  0  0  0  0
  -12.3649  -25.7651   15.4472 H   0  0  0  0  0  0  0  0  0  0  0  0
  -12.1465  -26.3143   13.7411 H   0  0  0  0  0  0  0  0  0  0  0  0
   -8.4219  -27.6012   15.4064 H   0  0  0  0  0  0  0  0  0  0  0  0
   -9.2667  -31.3078   13.0348 H   0  0  0  0  0  0  0  0  0  0  0  0
  -11.0437  -32.5192   15.1475 H   0  0  0  0  0  0  0  0  0  0  0  0
  -12.5480  -31.7082   15.7898 H   0  0  0  0  0  0  0  0  0  0  0  0
  -12.2184  -34.3121   14.6304 H   0  0  0  0  0  0  0  0  0  0  0  0
  -12.8916  -32.5307   12.4983 H   0  0  0  0  0  0  0  0  0  0  0  0
  -11.9944  -32.5645   11.4588 H   0  0  0  0  0  0  0  0  0  0  0  0
  -11.1858  -35.9643   11.1218 H   0  0  0  0  0  0  0  0  0  0  0  0
  -14.9647  -31.9146   13.2742 H   0  0  0  0  0  0  0  0  0  0  0  0
  -15.1397  -33.6993   11.4189 H   0  0  0  0  0  0  0  0  0  0  0  0
  -15.4677  -34.6711   14.5362 H   0  0  0  0  0  0  0  0  0  0  0  0
  -15.8052  -33.2570   17.3895 H   0  0  0  0  0  0  0  0  0  0  0  0
  -18.6373  -30.7328   12.1189 H   0  0  0  0  0  0  0  0  0  0  0  0
  -19.3729  -29.9994   17.4714 H   0  0  0  0  0  0  0  0  0  0  0  0
  -20.6239  -29.5578   16.2583 H   0  0  0  0  0  0  0  0  0  0  0  0
  1  2  1  0
  2  3  1  0
  2  4  1  1
  2  5  1  0
  5  6  2  0
  5  7  1  0
  7  8  1  0
  8  9  1  0
  9 10  1  0
 10 11  1  0
 11 12  2  0
 11 13  1  0
 13 14  1  0
 14 15  1  0
 15 16  1  0
 16 17  2  0
 16 18  1  0
 18 19  1  0
 20 18  1  6
 20 21  1  0
 20 22  1  0
 20 23  1  0
 23 24  1  0
 25 24  1  1
 25 26  1  0
 25 27  2  0
 25 28  1  0
 29 28  1  1
 29 30  2  0
 29 31  1  0
 29 32  1  0
 32 33  1  0
 34 33  1  0
 34 35  1  0
 34 36  1  0
 36 37  1  0
 38 37  1  1
 38 39  2  0
 38 40  1  0
 38 41  1  0
 36 42  1  0
 42 43  1  0
 42 44  1  0
 35 44  1  0
 44 45  1  0
 45 46  1  0
 46 47  2  0
 47 48  1  0
 45 49  1  0
 48 49  2  0
 49 50  1  0
 50 51  2  0
 51 52  1  0
 48 53  1  0
 52 53  2  0
 53 54  1  0
  1 55  1  6
  1 56  1  0
  1 57  1  0
  3 58  1  6
  3 59  1  0
  3 60  1  0
  4 61  1  0
  8 62  1  1
  8 63  1  0
  9 64  1  1
  9 65  1  0
 10 66  1  0
 13 67  1  6
 13 68  1  0
 14 69  1  6
 14 70  1  0
 15 71  1  0
 18 72  1  6
 19 73  1  0
 21 74  1  6
 21 75  1  0
 21 76  1  0
 22 77  1  1
 22 78  1  0
 22 79  1  0
 23 80  1  1
 23 81  1  0
 26 82  1  0
 31 83  1  0
 33 84  1  1
 33 85  1  0
 34 86  1  6
 36 87  1  6
 40 88  1  0
 41 89  1  0
 42 90  1  1
 43 91  1  0
 44 92  1  6
 46 93  1  0
 51 94  1  0
 54 95  1  0
 54 96  1  0
M  END
