7BLG_GAL_A_201
     RDKit          3D

 24 24  0  0  0  0  0  0  0  0999 V2000
    0.0783    1.5886    0.4705 C   0  0  2  0  0  0  0  0  0  0  0  0
   -1.1707    0.9198   -0.1579 C   0  0  1  0  0  0  0  0  0  0  0  0
   -1.4618   -0.4071    0.5543 C   0  0  2  0  0  0  0  0  0  0  0  0
   -0.2391   -1.3467    0.4367 C   0  0  2  0  0  0  0  0  0  0  0  0
    1.1125   -0.5657    0.4942 C   0  0  1  0  0  0  0  0  0  0  0  0
    1.8748   -0.4338   -0.8436 C   0  0  0  0  0  0  0  0  0  0  0  0
    0.7701    2.3250   -0.5036 O   0  0  0  0  0  0  0  0  0  0  0  0
   -2.2702    1.7877   -0.0386 O   0  0  0  0  0  0  0  0  0  0  0  0
   -2.6002   -1.0264    0.0086 O   0  0  0  0  0  0  0  0  0  0  0  0
   -0.3195   -2.1884   -0.6904 O   0  0  0  0  0  0  0  0  0  0  0  0
    0.9649    0.6919    1.1386 O   0  0  0  0  0  0  0  0  0  0  0  0
    2.3637   -1.6844   -1.2453 O   0  0  0  0  0  0  0  0  0  0  0  0
   -0.2841    2.3007    1.2473 H   0  0  0  0  0  0  0  0  0  0  0  0
   -0.9731    0.7171   -1.2370 H   0  0  0  0  0  0  0  0  0  0  0  0
   -1.6321   -0.1950    1.6383 H   0  0  0  0  0  0  0  0  0  0  0  0
   -0.2761   -2.0126    1.3277 H   0  0  0  0  0  0  0  0  0  0  0  0
    1.7855   -1.1615    1.1505 H   0  0  0  0  0  0  0  0  0  0  0  0
    2.7335    0.2595   -0.6992 H   0  0  0  0  0  0  0  0  0  0  0  0
    1.2208   -0.0141   -1.6371 H   0  0  0  0  0  0  0  0  0  0  0  0
    1.4807    2.8273   -0.0260 H   0  0  0  0  0  0  0  0  0  0  0  0
   -2.9092    1.5508   -0.7607 H   0  0  0  0  0  0  0  0  0  0  0  0
   -3.3918   -0.6245    0.4531 H   0  0  0  0  0  0  0  0  0  0  0  0
   -0.5109   -1.6245   -1.4837 H   0  0  0  0  0  0  0  0  0  0  0  0
    2.8371   -1.5329   -2.1043 H   0  0  0  0  0  0  0  0  0  0  0  0
  1  2  1  0
  2  3  1  0
  3  4  1  0
  4  5  1  0
  5  6  1  0
  1  7  1  0
  2  8  1  0
  3  9  1  0
  4 10  1  0
  1 11  1  0
  5 11  1  0
  6 12  1  0
  1 13  1  1
  2 14  1  6
  3 15  1  1
  4 16  1  1
  5 17  1  1
  6 18  1  0
  6 19  1  0
  7 20  1  0
  8 21  1  0
  9 22  1  0
 10 23  1  0
 12 24  1  0
M  END
