7BLG_GAL_A_201
     RDKit          3D

 24 24  0  0  0  0  0  0  0  0999 V2000
  -30.5719   -0.2564   -8.8052 C   0  0  2  0  0  0  0  0  0  0  0  0
  -29.9120    0.2176  -10.1251 C   0  0  1  0  0  0  0  0  0  0  0  0
  -28.8902   -0.8244  -10.5972 C   0  0  2  0  0  0  0  0  0  0  0  0
  -27.8120   -1.0347   -9.5087 C   0  0  2  0  0  0  0  0  0  0  0  0
  -28.4029   -0.9349   -8.0662 C   0  0  1  0  0  0  0  0  0  0  0  0
  -28.0521    0.3477   -7.2789 C   0  0  2  0  0  0  0  0  0  0  0  0
  -30.9081    0.8512   -8.0115 O   0  0  0  0  0  0  0  0  0  0  0  0
  -30.9073    0.4002  -11.1010 O   0  0  0  0  0  0  0  0  0  0  0  0
  -28.2873   -0.4210  -11.8018 O   0  0  0  0  0  0  0  0  0  0  0  0
  -26.7005   -0.1875   -9.6880 O   0  0  0  0  0  0  0  0  0  0  0  0
  -29.8003   -1.1916   -8.0526 O   0  0  0  0  0  0  0  0  0  0  0  0
  -28.9012    1.3953   -7.6608 O   0  0  0  0  0  0  0  0  0  0  0  0
  -31.5152   -0.7831   -9.0783 H   0  0  0  0  0  0  0  0  0  0  0  0
  -29.3871    1.1853   -9.9446 H   0  0  0  0  0  0  0  0  0  0  0  0
  -29.4222   -1.7954  -10.7494 H   0  0  0  0  0  0  0  0  0  0  0  0
  -27.4379   -2.0743   -9.6432 H   0  0  0  0  0  0  0  0  0  0  0  0
  -27.9404   -1.7639   -7.4852 H   0  0  0  0  0  0  0  0  0  0  0  0
  -27.0013    0.6330   -7.5097 H   0  0  0  0  0  0  0  0  0  0  0  0
  -28.1325    0.1798   -6.1839 H   0  0  0  0  0  0  0  0  0  0  0  0
  -30.0564    1.3139   -7.7973 H   0  0  0  0  0  0  0  0  0  0  0  0
  -31.3677   -0.4720  -11.2157 H   0  0  0  0  0  0  0  0  0  0  0  0
  -28.5651    0.5178  -11.9666 H   0  0  0  0  0  0  0  0  0  0  0  0
  -25.8777   -0.7320   -9.5858 H   0  0  0  0  0  0  0  0  0  0  0  0
  -28.8570    2.0667   -6.9312 H   0  0  0  0  0  0  0  0  0  0  0  0
  1  2  1  0
  2  3  1  0
  3  4  1  0
  4  5  1  0
  5  6  1  0
  1  7  1  0
  2  8  1  0
  3  9  1  0
  4 10  1  0
  1 11  1  0
  5 11  1  0
  6 12  1  0
  1 13  1  6
  2 14  1  1
  3 15  1  6
  4 16  1  6
  5 17  1  1
  6 18  1  1
  6 19  1  0
  7 20  1  0
  8 21  1  0
  9 22  1  0
 10 23  1  0
 12 24  1  0
M  END
