
     RDKit          3D

 32 36  0  0  0  0  0  0  0  0999 V2000
   -3.6501  -12.2358  -68.7661 C   0  0  0  0  0  0  0  0  0  0  0  0
   -2.8040  -13.1582  -69.6352 C   0  0  0  0  0  0  0  0  0  0  0  0
   -2.3260  -12.5077  -70.9218 C   0  0  0  0  0  0  0  0  0  0  0  0
   -1.6678  -13.5436  -68.6898 C   0  0  0  0  0  0  0  0  0  0  0  0
   -2.2896  -13.4738  -67.2936 C   0  0  0  0  0  0  0  0  0  0  0  0
   -3.6483  -12.9778  -67.5082 N   0  0  0  0  0  0  0  0  0  0  0  0
   -4.2634  -12.2920  -66.3670 C   0  0  0  0  0  0  0  0  0  0  0  0
   -4.8858  -13.1480  -65.2445 C   0  0  0  0  0  0  0  0  0  0  0  0
   -4.1858  -14.3768  -65.0418 O   0  0  0  0  0  0  0  0  0  0  0  0
   -3.6472  -14.6389  -63.8150 C   0  0  0  0  0  0  0  0  0  0  0  0
   -2.5528  -15.5048  -63.8385 C   0  0  0  0  0  0  0  0  0  0  0  0
   -1.9091  -15.8810  -62.6567 C   0  0  0  0  0  0  0  0  0  0  0  0
   -4.0776  -14.1293  -62.5930 C   0  0  0  0  0  0  0  0  0  0  0  0
   -3.4335  -14.5028  -61.4069 C   0  0  0  0  0  0  0  0  0  0  0  0
   -2.3466  -15.3923  -61.4182 C   0  0  0  0  0  0  0  0  0  0  0  0
   -1.7026  -15.8128  -60.0940 C   0  0  2  0  0  0  0  0  0  0  0  0
   -0.1753  -15.8600  -60.1802 C   0  0  0  0  0  0  0  0  0  0  0  0
    0.5378  -14.6558  -60.3359 C   0  0  0  0  0  0  0  0  0  0  0  0
    1.9282  -14.6555  -60.4518 C   0  0  0  0  0  0  0  0  0  0  0  0
    2.6140  -15.8614  -60.4060 C   0  0  0  0  0  0  0  0  0  0  0  0
    3.9723  -15.9106  -60.5178 O   0  0  0  0  0  0  0  0  0  0  0  0
    1.9328  -17.0617  -60.2471 C   0  0  0  0  0  0  0  0  0  0  0  0
    0.5325  -17.0782  -60.1454 C   0  0  0  0  0  0  0  0  0  0  0  0
   -0.1572  -18.4060  -59.9493 C   0  0  0  0  0  0  0  0  0  0  0  0
   -1.6670  -18.3656  -60.1737 C   0  0  0  0  0  0  0  0  0  0  0  0
   -2.2744  -17.1328  -59.4857 C   0  0  2  0  0  0  0  0  0  0  0  0
   -3.7930  -17.1712  -59.3794 C   0  0  0  0  0  0  0  0  0  0  0  0
   -4.4355  -16.3840  -58.4096 C   0  0  0  0  0  0  0  0  0  0  0  0
   -5.8275  -16.3844  -58.2944 C   0  0  0  0  0  0  0  0  0  0  0  0
   -6.5981  -17.1651  -59.1523 C   0  0  0  0  0  0  0  0  0  0  0  0
   -5.9768  -17.9447  -60.1248 C   0  0  0  0  0  0  0  0  0  0  0  0
   -4.5851  -17.9500  -60.2358 C   0  0  0  0  0  0  0  0  0  0  0  0
  1  2  1  0
  2  3  1  0
  2  4  1  0
  4  5  1  0
  1  6  1  0
  5  6  1  0
  6  7  1  0
  7  8  1  0
  8  9  1  0
  9 10  1  0
 10 11  4  0
 11 12  4  0
 10 13  4  0
 13 14  4  0
 14 15  4  0
 12 15  4  0
 16 15  1  6
 16 17  1  0
 17 18  4  0
 18 19  4  0
 19 20  4  0
 20 21  1  0
 20 22  4  0
 17 23  4  0
 22 23  4  0
 23 24  1  0
 24 25  1  0
 16 26  1  0
 25 26  1  0
 26 27  1  6
 27 28  4  0
 28 29  4  0
 29 30  4  0
 30 31  4  0
 31 32  4  0
 27 32  4  0
M  END
