
     RDKit          3D

 23 26  0  0  0  0  0  0  0  0999 V2000
   23.5340   13.6244    7.8615 C   0  0  0  0  0  0  0  0  0  0  0  0
   24.7462   13.1290    8.6478 C   0  0  0  0  0  0  0  0  0  0  0  0
   24.4135   11.7068    9.0976 C   0  0  0  0  0  0  0  0  0  0  0  0
   22.9614   11.4720    8.6958 C   0  0  0  0  0  0  0  0  0  0  0  0
   22.7883   12.3499    7.4554 C   0  0  0  0  0  0  0  0  0  0  0  0
   21.3393   12.5978    6.9778 C   0  0  2  0  0  0  0  0  0  0  0  0
   21.1988   12.9958    5.4991 C   0  0  0  0  0  0  0  0  0  0  0  0
   20.1076   12.2508    4.8533 C   0  0  0  0  0  0  0  0  0  0  0  0
   19.2731   11.6331    4.3356 N   0  0  0  0  0  0  0  0  0  0  0  0
   20.6832   13.5768    7.8507 N   0  0  0  0  0  0  0  0  0  0  0  0
   20.7222   13.6051    9.2134 C   0  0  0  0  0  0  0  0  0  0  0  0
   19.9577   14.5779    7.3195 N   0  0  0  0  0  0  0  0  0  0  0  0
   19.5125   15.2429    8.3904 C   0  0  0  0  0  0  0  0  0  0  0  0
   19.9759   14.6989    9.6078 C   0  0  0  0  0  0  0  0  0  0  0  0
   19.7556   15.0714   10.9873 C   0  0  0  0  0  0  0  0  0  0  0  0
   19.7266   16.3966   11.2847 N   0  0  0  0  0  0  0  0  0  0  0  0
   19.5434   16.7524   12.5682 C   0  0  0  0  0  0  0  0  0  0  0  0
   19.3669   15.9502   13.6301 N   0  0  0  0  0  0  0  0  0  0  0  0
   19.3840   14.6560   13.2798 C   0  0  0  0  0  0  0  0  0  0  0  0
   19.5649   14.1301   12.0068 C   0  0  0  0  0  0  0  0  0  0  0  0
   19.4743   12.7136   12.1477 C   0  0  0  0  0  0  0  0  0  0  0  0
   19.2655   12.4299   13.4819 C   0  0  0  0  0  0  0  0  0  0  0  0
   19.2170   13.6207   14.1577 N   0  0  0  0  0  0  0  0  0  0  0  0
  1  2  1  0
  2  3  1  0
  3  4  1  0
  4  5  1  0
  1  5  1  0
  5  6  1  0
  6  7  1  6
  7  8  1  0
  8  9  3  0
  6 10  1  0
 10 11  4  0
 10 12  4  0
 12 13  4  0
 13 14  4  0
 11 14  4  0
 14 15  1  0
 15 16  4  0
 16 17  4  0
 17 18  4  0
 18 19  4  0
 15 20  4  0
 19 20  4  0
 20 21  4  0
 21 22  4  0
 19 23  4  0
 22 23  4  0
M  END
