7QPP_VDX_A_501
     RDKit          3D

 30 32  0  0  0  0  0  0  0  0999 V2000
   16.9220   17.6000   34.6210 O   0  0  0  0  0  0  0  0  0  0  0  0
    4.3950   26.3520   34.8710 O   0  0  0  0  0  0  0  0  0  0  0  0
   14.1420   17.4440   35.5230 C   0  0  1  0  0  0  0  0  0  0  0  0
   14.8140   16.4170   34.6060 C   0  0  0  0  0  0  0  0  0  0  0  0
   15.8750   17.0290   33.8020 C   0  0  1  0  0  0  0  0  0  0  0  0
   15.2910   18.2000   32.9470 C   0  0  0  0  0  0  0  0  0  0  0  0
   14.5530   19.2260   33.7330 C   0  0  0  0  0  0  0  0  0  0  0  0
   14.5610   20.5510   33.4190 C   0  0  0  0  0  0  0  0  0  0  0  0
   13.9050   21.6570   34.2140 C   0  0  0  0  0  0  0  0  0  0  0  0
   13.8090   22.8980   33.7000 C   0  0  0  0  0  0  0  0  0  0  0  0
   14.0960   23.3130   32.2780 C   0  0  0  0  0  0  0  0  0  0  0  0
   13.5800   18.6160   34.7930 C   0  0  0  0  0  0  0  0  0  0  0  0
   12.8580   23.7750   31.5430 C   0  0  0  0  0  0  0  0  0  0  0  0
   12.0770   24.7440   32.2870 C   0  0  0  0  0  0  0  0  0  0  0  0
   11.7190   24.2910   33.7500 C   0  0  1  0  0  0  0  0  0  0  0  0
   12.8890   23.8060   34.4310 C   0  0  1  0  0  0  0  0  0  0  0  0
   12.6440   23.7690   35.9380 C   0  0  0  0  0  0  0  0  0  0  0  0
   11.3760   24.7640   36.0930 C   0  0  0  0  0  0  0  0  0  0  0  0
   11.1760   25.3880   34.8020 C   0  0  2  0  0  0  0  0  0  0  0  0
   10.7740   23.0720   33.6310 C   0  0  0  0  0  0  0  0  0  0  0  0
   12.3190   19.0720   34.8980 C   0  0  0  0  0  0  0  0  0  0  0  0
    9.7540   25.9540   34.4710 C   0  0  2  0  0  0  0  0  0  0  0  0
    9.7150   27.3420   35.1320 C   0  0  0  0  0  0  0  0  0  0  0  0
    8.5530   25.1440   34.9510 C   0  0  0  0  0  0  0  0  0  0  0  0
    7.2170   25.6630   34.2780 C   0  0  0  0  0  0  0  0  0  0  0  0
    6.0890   24.6480   34.5590 C   0  0  0  0  0  0  0  0  0  0  0  0
    4.6920   25.1840   34.1670 C   0  0  0  0  0  0  0  0  0  0  0  0
    4.6240   25.5140   32.6740 C   0  0  0  0  0  0  0  0  0  0  0  0
    3.6580   24.1330   34.5180 C   0  0  0  0  0  0  0  0  0  0  0  0
   13.1480   16.8590   36.3580 O   0  0  0  0  0  0  0  0  0  0  0  0
  3  4  1  0
  5  1  1  1
  4  5  1  0
  5  6  1  0
  6  7  1  0
  7  8  2  0
  8  9  1  0
  9 10  2  0
 10 11  1  0
  3 12  1  0
  7 12  1  0
 11 13  1  0
 13 14  1  0
 14 15  1  0
 10 16  1  0
 15 16  1  0
 16 17  1  1
 17 18  1  0
 15 19  1  0
 19 18  1  1
 15 20  1  6
 12 21  2  0
 19 22  1  0
 22 23  1  1
 22 24  1  0
 24 25  1  0
 25 26  1  0
  2 27  1  0
 26 27  1  0
 27 28  1  0
 27 29  1  0
  3 30  1  6
M  END
$$$$
