1W1P_GIO_B_1501
     RDKit          3D

 11 12  0  0  0  0  0  0  0  0999 V2000
   43.1707   77.9359   53.4070 O   0  0  0  0  0  0  0  0  0  0  0  0
   43.5223   76.9744   52.6438 C   0  0  0  0  0  0  0  0  0  0  0  0
   42.5918   76.4097   51.6602 C   0  0  2  0  0  0  0  0  0  0  0  0
   41.1447   76.3898   52.1430 C   0  0  0  0  0  0  0  0  0  0  0  0
   40.5809   75.3389   51.1828 C   0  0  0  0  0  0  0  0  0  0  0  0
   41.6154   74.2488   51.4013 C   0  0  0  0  0  0  0  0  0  0  0  0
   42.8565   74.9974   51.4708 N   0  0  0  0  0  0  0  0  0  0  0  0
   44.2152   74.5598   51.3834 C   0  0  0  0  0  0  0  0  0  0  0  0
   44.5150   73.5552   50.6957 O   0  0  0  0  0  0  0  0  0  0  0  0
   45.2800   75.2732   52.0923 C   0  0  0  0  0  0  0  0  0  0  0  0
   44.8392   76.4537   52.7610 N   0  0  0  0  0  0  0  0  0  0  0  0
  1  2  2  0
  3  2  1  1
  4  3  1  6
  4  5  1  0
  5  6  1  6
  3  7  1  0
  6  7  1  6
  7  8  1  0
  8  9  2  0
  8 10  1  0
  2 11  1  0
 10 11  1  1
M  END
$$$$
