7XBV_APC_A_601
     RDKit          3D

 49 51  0  0  0  0  0  0  0  0999 V2000
  -34.0158   16.4995   -2.8780 P   0  0  1  0  0  5  0  0  0  0  0  0
  -33.8278   17.3362   -4.1233 O   0  0  0  0  0  0  0  0  0  0  0  0
  -32.7076   16.7668   -1.8346 O   0  0  0  0  0  0  0  0  0  0  0  0
  -35.4605   16.9580   -2.1224 O   0  0  0  0  0  0  0  0  0  0  0  0
  -33.0133   13.9915   -2.3606 P   0  0  1  0  0  5  0  0  0  0  0  0
  -31.7808   13.6448   -3.1666 O   0  0  0  0  0  0  0  0  0  0  0  0
  -32.5715   14.8600   -0.9722 O   0  0  0  0  0  0  0  0  0  0  0  0
  -34.1045   14.8634   -3.3337 O   0  0  0  0  0  0  0  0  0  0  0  0
  -34.1055   11.3749   -3.2858 P   0  0  1  0  0  5  0  0  0  0  0  0
  -32.8217   11.2667   -4.0779 O   0  0  0  0  0  0  0  0  0  0  0  0
  -34.5649    9.8376   -2.7360 O   0  0  0  0  0  0  0  0  0  0  0  0
  -33.8171   12.4448   -1.8454 C   0  0  1  0  0  0  0  0  0  0  0  0
  -35.3129   12.0835   -4.2621 O   0  0  0  0  0  0  0  0  0  0  0  0
  -36.4417   11.2429   -4.2679 C   0  0  1  0  0  0  0  0  0  0  0  0
  -37.7115   12.0868   -4.4420 C   0  0  1  0  0  0  0  0  0  0  0  0
  -38.8274   11.3294   -4.0189 O   0  0  0  0  0  0  0  0  0  0  0  0
  -37.6539   13.3851   -3.6297 C   0  0  1  0  0  0  0  0  0  0  0  0
  -38.3203   14.4148   -4.3162 O   0  0  0  0  0  0  0  0  0  0  0  0
  -38.4069   13.0139   -2.3801 C   0  0  1  0  0  0  0  0  0  0  0  0
  -39.0820   14.1080   -1.8155 O   0  0  0  0  0  0  0  0  0  0  0  0
  -39.3856   11.9677   -2.8898 C   0  0  2  0  0  0  0  0  0  0  0  0
  -39.6795   10.9824   -1.8481 N   0  0  0  0  0  0  0  0  0  0  0  0
  -39.0009   10.7567   -0.6924 C   0  0  0  0  0  0  0  0  0  0  0  0
  -39.5928    9.8277    0.1088 N   0  0  0  0  0  0  0  0  0  0  0  0
  -40.6894    9.4855   -0.5940 C   0  0  0  0  0  0  0  0  0  0  0  0
  -41.6984    8.5842   -0.2753 C   0  0  0  0  0  0  0  0  0  0  0  0
  -41.6791    7.8303    0.9372 N   0  0  0  0  0  0  0  0  0  0  0  0
  -42.7245    8.4416   -1.1671 N   0  0  0  0  0  0  0  0  0  0  0  0
  -42.7622    9.1613   -2.3348 C   0  0  0  0  0  0  0  0  0  0  0  0
  -41.7626   10.0438   -2.6387 N   0  0  0  0  0  0  0  0  0  0  0  0
  -40.7454   10.1787   -1.7538 C   0  0  0  0  0  0  0  0  0  0  0  0
  -32.9488   16.2944   -0.9986 H   0  0  0  0  0  0  0  0  0  0  0  0
  -35.5561   17.9238   -2.3201 H   0  0  0  0  0  0  0  0  0  0  0  0
  -32.8651   15.7909   -1.1402 H   0  0  0  0  0  0  0  0  0  0  0  0
  -35.0079    9.4059   -3.5095 H   0  0  0  0  0  0  0  0  0  0  0  0
  -33.1647   11.9169   -1.1197 H   0  0  0  0  0  0  0  0  0  0  0  0
  -34.7880   12.6777   -1.3616 H   0  0  0  0  0  0  0  0  0  0  0  0
  -36.3900   10.5206   -5.1152 H   0  0  0  0  0  0  0  0  0  0  0  0
  -36.5169   10.6840   -3.3080 H   0  0  0  0  0  0  0  0  0  0  0  0
  -37.8276   12.3157   -5.5245 H   0  0  0  0  0  0  0  0  0  0  0  0
  -36.6175   13.7011   -3.3766 H   0  0  0  0  0  0  0  0  0  0  0  0
  -37.6257   14.9078   -4.8269 H   0  0  0  0  0  0  0  0  0  0  0  0
  -37.7066   12.5607   -1.6380 H   0  0  0  0  0  0  0  0  0  0  0  0
  -38.3884   14.6703   -1.3822 H   0  0  0  0  0  0  0  0  0  0  0  0
  -40.3319   12.4592   -3.2111 H   0  0  0  0  0  0  0  0  0  0  0  0
  -38.0857   11.2687   -0.4247 H   0  0  0  0  0  0  0  0  0  0  0  0
  -42.5562    7.6554    1.4760 H   0  0  0  0  0  0  0  0  0  0  0  0
  -40.7798    7.4434    1.2997 H   0  0  0  0  0  0  0  0  0  0  0  0
  -43.5877    9.0286   -3.0203 H   0  0  0  0  0  0  0  0  0  0  0  0
  1  2  2  0
  1  3  1  1
  1  4  1  0
  5  6  2  0
  5  7  1  1
  1  8  1  0
  5  8  1  0
  9 10  2  0
  9 11  1  1
  5 12  1  0
  9 12  1  0
  9 13  1  0
 13 14  1  0
 15 14  1  0
 15 16  1  0
 15 17  1  0
 17 18  1  0
 17 19  1  0
 19 20  1  0
 16 21  1  0
 19 21  1  0
 21 22  1  0
 22 23  1  0
 23 24  2  0
 24 25  1  0
 25 26  2  0
 26 27  1  0
 26 28  1  0
 28 29  2  0
 29 30  1  0
 22 31  1  0
 25 31  1  0
 30 31  2  0
  3 32  1  0
  4 33  1  0
  7 34  1  0
 11 35  1  0
 12 36  1  1
 12 37  1  0
 14 38  1  6
 14 39  1  0
 15 40  1  6
 17 41  1  1
 18 42  1  0
 19 43  1  1
 20 44  1  0
 21 45  1  6
 23 46  1  0
 27 47  1  0
 27 48  1  0
 29 49  1  0
M  END
