7OU8_1XI_BBB_801
     RDKit          3D

 44 46  0  0  0  0  0  0  0  0999 V2000
   -3.3438   78.2635   65.5250 C   0  0  1  0  0  0  0  0  0  0  0  0
   -3.0570   77.1311   66.5015 C   0  0  1  0  0  0  0  0  0  0  0  0
   -3.5211   77.5463   67.8972 C   0  0  2  0  0  0  0  0  0  0  0  0
   -3.6019   79.3358   69.5301 N   0  0  0  0  0  0  0  0  0  0  0  0
   -2.4841   79.3391   65.9976 N   0  0  0  0  0  0  0  0  0  0  0  0
   -2.8733   79.9461   67.2460 C   0  0  0  0  0  0  0  0  0  0  0  0
   -3.7853   79.7025   71.9106 C   0  0  0  0  0  0  0  0  0  0  0  0
   -2.9978   79.8030   70.6387 C   0  0  0  0  0  0  0  0  0  0  0  0
   -1.8176   80.1865   70.6526 O   0  0  0  0  0  0  0  0  0  0  0  0
   -2.8936   78.8774   68.3412 C   0  0  2  0  0  0  0  0  0  0  0  0
   -1.3020   79.4533   65.4104 C   0  0  0  0  0  0  0  0  0  0  0  0
   -0.3063   80.1249   65.9767 N   0  0  0  0  0  0  0  0  0  0  0  0
    0.9690   80.1792   65.2570 C   0  0  0  0  0  0  0  0  0  0  0  0
    2.1669   80.1783   66.1924 C   0  0  0  0  0  0  0  0  0  0  0  0
    3.3451   80.7554   65.7607 C   0  0  0  0  0  0  0  0  0  0  0  0
    4.4721   80.7342   66.5783 C   0  0  0  0  0  0  0  0  0  0  0  0
    4.4109   80.1710   67.8272 C   0  0  0  0  0  0  0  0  0  0  0  0
    3.2378   79.6476   68.2945 C   0  0  0  0  0  0  0  0  0  0  0  0
    2.1196   79.6193   67.4602 C   0  0  0  0  0  0  0  0  0  0  0  0
   -1.2004   78.5168   63.9591 S   0  0  0  0  0  0  0  0  0  0  0  0
   -2.9511   78.0821   64.0570 C   0  0  0  0  0  0  0  0  0  0  0  0
   -3.7412   75.9368   66.0940 O   0  0  0  0  0  0  0  0  0  0  0  0
   -3.1245   76.5765   68.8689 O   0  0  0  0  0  0  0  0  0  0  0  0
   -4.4062   78.3901   65.5182 H   0  0  0  0  0  0  0  0  0  0  0  0
   -2.0058   76.9320   66.5144 H   0  0  0  0  0  0  0  0  0  0  0  0
   -4.5856   77.6370   67.8373 H   0  0  0  0  0  0  0  0  0  0  0  0
   -4.5858   79.3015   69.5218 H   0  0  0  0  0  0  0  0  0  0  0  0
   -2.1720   80.7113   67.5058 H   0  0  0  0  0  0  0  0  0  0  0  0
   -3.8475   80.3776   67.1473 H   0  0  0  0  0  0  0  0  0  0  0  0
   -4.7737   79.3562   71.6917 H   0  0  0  0  0  0  0  0  0  0  0  0
   -3.3050   79.0141   72.5741 H   0  0  0  0  0  0  0  0  0  0  0  0
   -3.8393   80.6656   72.3737 H   0  0  0  0  0  0  0  0  0  0  0  0
   -1.8610   78.7054   68.5627 H   0  0  0  0  0  0  0  0  0  0  0  0
    1.0359   79.3273   64.6132 H   0  0  0  0  0  0  0  0  0  0  0  0
    0.9904   81.0943   64.7029 H   0  0  0  0  0  0  0  0  0  0  0  0
    3.3902   81.2026   64.8317 H   0  0  0  0  0  0  0  0  0  0  0  0
    5.3577   81.1444   66.2427 H   0  0  0  0  0  0  0  0  0  0  0  0
    5.2563   80.1421   68.4183 H   0  0  0  0  0  0  0  0  0  0  0  0
    3.1797   79.2766   69.2557 H   0  0  0  0  0  0  0  0  0  0  0  0
    1.2476   79.1773   67.7906 H   0  0  0  0  0  0  0  0  0  0  0  0
   -3.1005   77.0668   63.7539 H   0  0  0  0  0  0  0  0  0  0  0  0
   -3.5457   78.6942   63.4115 H   0  0  0  0  0  0  0  0  0  0  0  0
   -4.6970   76.1015   66.0773 H   0  0  0  0  0  0  0  0  0  0  0  0
   -2.1565   76.5221   68.8949 H   0  0  0  0  0  0  0  0  0  0  0  0
  1  2  1  0
  2  3  1  0
  1  5  1  0
  5  6  1  0
  7  8  1  0
  4  8  1  0
  8  9  2  0
 10  4  1  0
  3 10  1  0
  6 10  1  0
  5 11  1  0
 11 12  2  3
 12 13  1  0
 13 14  1  0
 14 15  4  0
 15 16  4  0
 16 17  4  0
 17 18  4  0
 18 19  4  0
 14 19  4  0
 11 20  1  0
  1 21  1  0
 20 21  1  0
  2 22  1  0
  3 23  1  0
  1 24  1  1
  2 25  1  6
  3 26  1  1
  4 27  1  0
  6 28  1  0
  6 29  1  0
  7 30  1  0
  7 31  1  0
  7 32  1  0
 10 33  1  6
 13 34  1  0
 13 35  1  0
 15 36  1  0
 16 37  1  0
 17 38  1  0
 18 39  1  0
 19 40  1  0
 21 41  1  0
 21 42  1  0
 22 43  1  0
 23 44  1  0
M  END
