7UP3_NZ0_B_305
     RDKit          3D

 35 37  0  0  0  0  0  0  0  0999 V2000
   -0.8907   -1.0395    2.2749 C   0  0  0  0  0  0  0  0  0  0  0  0
   -0.6786   -0.2822    1.1121 C   0  0  0  0  0  0  0  0  0  0  0  0
   -1.5793   -0.4401   -0.0552 C   0  0  0  0  0  0  0  0  0  0  0  0
   -1.0939   -0.7715   -1.3471 C   0  0  0  0  0  0  0  0  0  0  0  0
    0.3809    0.6392    1.0758 C   0  0  0  0  0  0  0  0  0  0  0  0
   -2.9493   -0.2110    0.1287 C   0  0  0  0  0  0  0  0  0  0  0  0
    2.9539   -0.8049    4.4358 O   0  0  0  0  0  0  0  0  0  0  0  0
   -2.7742   -1.8792   -4.7563 O   0  0  0  0  0  0  0  0  0  0  0  0
    2.3156   -1.0319   -2.2656 N   0  0  0  0  0  0  0  0  0  0  0  0
    1.9433    0.1625    4.5144 C   0  0  0  0  0  0  0  0  0  0  0  0
    2.2796   -1.8779   -1.2510 N   0  0  0  0  0  0  0  0  0  0  0  0
    1.0477   -1.9261   -0.7713 N   0  0  0  0  0  0  0  0  0  0  0  0
   -2.0221   -0.8489   -2.4182 C   0  0  0  0  0  0  0  0  0  0  0  0
   -1.5688   -1.3064   -4.0648 S   0  0  0  0  0  6  0  0  0  0  0  0
   -0.4930   -2.3558   -4.0513 O   0  0  0  0  0  0  0  0  0  0  0  0
   -1.0283    0.0828   -4.9427 N   0  0  0  0  0  0  0  0  0  0  0  0
    0.3412   -1.0769   -1.5449 C   0  0  0  0  0  0  0  0  0  0  0  0
    1.1233   -0.5043   -2.4793 N   0  0  0  0  0  0  0  0  0  0  0  0
   -3.3391   -0.6041   -2.1844 N   0  0  0  0  0  0  0  0  0  0  0  0
   -3.8161   -0.2917   -0.9551 C   0  0  0  0  0  0  0  0  0  0  0  0
    1.2260    0.7873    2.1790 C   0  0  0  0  0  0  0  0  0  0  0  0
    1.0114    0.0316    3.3415 C   0  0  0  0  0  0  0  0  0  0  0  0
   -0.0456   -0.8905    3.3784 C   0  0  0  0  0  0  0  0  0  0  0  0
   -1.7018   -1.7558    2.3213 H   0  0  0  0  0  0  0  0  0  0  0  0
    0.5524    1.2427    0.1928 H   0  0  0  0  0  0  0  0  0  0  0  0
   -3.3414    0.0514    1.1040 H   0  0  0  0  0  0  0  0  0  0  0  0
    3.5916   -0.4930    3.7414 H   0  0  0  0  0  0  0  0  0  0  0  0
    3.1707   -0.8077   -2.8201 H   0  0  0  0  0  0  0  0  0  0  0  0
    1.3803    0.0146    5.4605 H   0  0  0  0  0  0  0  0  0  0  0  0
    2.3855    1.1841    4.5572 H   0  0  0  0  0  0  0  0  0  0  0  0
   -0.3797    0.6153   -4.3226 H   0  0  0  0  0  0  0  0  0  0  0  0
   -1.8631    0.6932   -5.0896 H   0  0  0  0  0  0  0  0  0  0  0  0
   -4.8731   -0.1052   -0.8200 H   0  0  0  0  0  0  0  0  0  0  0  0
    2.0462    1.4926    2.1273 H   0  0  0  0  0  0  0  0  0  0  0  0
   -0.2145   -1.4948    4.2612 H   0  0  0  0  0  0  0  0  0  0  0  0
  1  2  2  0
  2  3  1  0
  3  4  1  0
  2  5  1  0
  3  6  2  0
  7 10  1  0
  9 11  1  0
 11 12  2  0
  4 13  2  0
  8 14  2  0
 13 14  1  0
 14 15  2  0
 14 16  1  0
  4 17  1  0
 12 17  1  0
 17 18  2  0
  9 18  1  0
 13 19  1  0
 19 20  2  0
  6 20  1  0
  5 21  2  0
 21 22  1  0
 10 22  1  0
  1 23  1  0
 22 23  2  0
  1 24  1  0
  5 25  1  0
  6 26  1  0
  7 27  1  0
  9 28  1  0
 10 29  1  0
 10 30  1  0
 16 31  1  0
 16 32  1  0
 20 33  1  0
 21 34  1  0
 23 35  1  0
M  END
