7PA4_C_A_606
     RDKit          3D

 35 36  0  0  0  0  0  0  0  0999 V2000
    5.6468   11.6689    3.1020 O   0  0  0  0  0  0  0  0  0  0  0  0
    7.2983   11.2975    3.1036 P   0  0  1  0  0  5  0  0  0  0  0  0
    7.4686    9.7984    3.2134 O   0  0  0  0  0  0  0  0  0  0  0  0
    7.9878   11.8413    1.6563 O   0  0  0  0  0  0  0  0  0  0  0  0
    8.0368   12.0675    4.4339 O   0  0  0  0  0  0  0  0  0  0  0  0
    9.2864   11.4581    4.6639 C   0  0  0  0  0  0  0  0  0  0  0  0
    9.4848   10.3259    3.6527 C   0  0  1  0  0  0  0  0  0  0  0  0
   10.7623    9.7539    3.8198 O   0  0  0  0  0  0  0  0  0  0  0  0
    8.4443    9.2241    3.8188 C   0  0  1  0  0  0  0  0  0  0  0  0
    7.2914    9.4780    3.0577 O   0  0  0  0  0  0  0  0  0  0  0  0
    9.1837    8.0003    3.3273 C   0  0  1  0  0  0  0  0  0  0  0  0
    8.8927    7.7025    1.9804 O   0  0  0  0  0  0  0  0  0  0  0  0
   10.6624    8.3780    3.5080 C   0  0  2  0  0  0  0  0  0  0  0  0
   11.2779    7.5654    4.5795 N   0  0  0  0  0  4  0  0  0  0  0  0
   12.2068    8.1104    5.4322 C   0  0  0  0  0  0  0  0  0  0  0  0
   12.5388    9.3232    5.3372 O   0  0  0  0  0  0  0  0  0  0  0  0
   12.7883    7.3441    6.3923 N   0  0  0  0  0  0  0  0  0  0  0  0
   12.4866    6.0283    6.5301 C   0  0  0  0  0  0  0  0  0  0  0  0
   13.1179    5.2563    7.5521 N   0  0  0  0  0  0  0  0  0  0  0  0
   11.5683    5.4411    5.6631 C   0  0  0  0  0  0  0  0  0  0  0  0
   10.9769    6.2326    4.6810 C   0  0  0  0  0  0  0  0  0  0  0  0
    5.3259   11.4001    3.9994 H   0  0  0  0  0  0  0  0  0  0  0  0
    7.4616   11.3980    0.9442 H   0  0  0  0  0  0  0  0  0  0  0  0
    9.3220   11.0235    5.6881 H   0  0  0  0  0  0  0  0  0  0  0  0
   10.1143   12.1937    4.5411 H   0  0  0  0  0  0  0  0  0  0  0  0
    9.4214   10.7506    2.6239 H   0  0  0  0  0  0  0  0  0  0  0  0
    8.1811    9.0765    4.8943 H   0  0  0  0  0  0  0  0  0  0  0  0
    6.7581   10.1429    3.5658 H   0  0  0  0  0  0  0  0  0  0  0  0
    8.9073    7.1175    3.9464 H   0  0  0  0  0  0  0  0  0  0  0  0
    9.1371    8.4912    1.4275 H   0  0  0  0  0  0  0  0  0  0  0  0
   11.2140    8.2261    2.5528 H   0  0  0  0  0  0  0  0  0  0  0  0
   12.9005    4.2414    7.6711 H   0  0  0  0  0  0  0  0  0  0  0  0
   13.8082    5.7018    8.1963 H   0  0  0  0  0  0  0  0  0  0  0  0
   11.3188    4.3902    5.7422 H   0  0  0  0  0  0  0  0  0  0  0  0
   10.2762    5.7685    3.9987 H   0  0  0  0  0  0  0  0  0  0  0  0
  2  1  1  6
  2  3  2  0
  2  4  1  0
  2  5  1  0
  5  6  1  0
  7  6  1  0
  7  8  1  0
  7  9  1  0
  9 10  1  0
  9 11  1  0
 11 12  1  0
  8 13  1  0
 11 13  1  0
 13 14  1  0
 14 15  4  0
 15 16  2  0
 15 17  4  0
 17 18  4  0
 18 19  1  0
 18 20  4  0
 14 21  4  0
 20 21  4  0
  1 22  1  0
  4 23  1  0
  6 24  1  0
  6 25  1  0
  7 26  1  6
  9 27  1  1
 10 28  1  0
 11 29  1  1
 12 30  1  0
 13 31  1  6
 19 32  1  0
 19 33  1  0
 20 34  1  0
 21 35  1  0
M  CHG  1  14   1
M  END
