
     RDKit          3D

 27 29  0  0  0  0  0  0  0  0999 V2000
    1.0695   -6.9872  -31.8930 O   0  0  0  0  0  0  0  0  0  0  0  0
    0.7938   -5.5889  -32.3147 P   0  0  0  0  0  5  0  0  0  0  0  0
   -0.5515   -5.4546  -33.1676 O   0  0  0  0  0  0  0  0  0  0  0  0
    0.4771   -4.5936  -31.1084 O   0  0  0  0  0  0  0  0  0  0  0  0
    1.8654   -4.8441  -33.2081 O   0  0  0  0  0  0  0  0  0  0  0  0
    3.1230   -4.1082  -32.5827 P   0  0  1  0  0  5  0  0  0  0  0  0
    3.7997   -4.8138  -31.4557 O   0  0  0  0  0  0  0  0  0  0  0  0
    4.1074   -3.9512  -33.8394 O   0  0  0  0  0  0  0  0  0  0  0  0
    2.6658   -2.5990  -32.2966 O   0  0  0  0  0  0  0  0  0  0  0  0
    2.7010   -2.1588  -30.9513 C   0  0  0  0  0  0  0  0  0  0  0  0
    4.1441   -1.8614  -30.5444 C   0  0  2  0  0  0  0  0  0  0  0  0
    4.1716   -1.5624  -29.1334 O   0  0  0  0  0  0  0  0  0  0  0  0
    4.7279   -0.6447  -31.2665 C   0  0  2  0  0  0  0  0  0  0  0  0
    6.1531   -0.7411  -31.3443 O   0  0  0  0  0  0  0  0  0  0  0  0
    4.3931    0.4860  -30.3272 C   0  0  0  0  0  0  0  0  0  0  0  0
    4.5654   -0.1798  -28.9698 C   0  0  1  0  0  0  0  0  0  0  0  0
    3.7734    0.4354  -27.9233 N   0  0  0  0  0  0  0  0  0  0  0  0
    2.4619    0.1816  -27.6081 C   0  0  0  0  0  0  0  0  0  0  0  0
    2.0335    0.9341  -26.6128 N   0  0  0  0  0  0  0  0  0  0  0  0
    3.1243    1.6890  -26.2654 C   0  0  0  0  0  0  0  0  0  0  0  0
    4.2103    1.4029  -27.0614 C   0  0  0  0  0  0  0  0  0  0  0  0
    5.4495    1.9488  -27.0202 N   0  0  0  0  0  0  0  0  0  0  0  0
    5.5835    2.8511  -26.0867 C   0  0  0  0  0  0  0  0  0  0  0  0
    6.7720    3.4849  -25.9238 N   0  0  0  0  0  0  0  0  0  0  0  0
    4.5691    3.2302  -25.2299 N   0  0  0  0  0  0  0  0  0  0  0  0
    3.2901    2.6895  -25.2343 C   0  0  0  0  0  0  0  0  0  0  0  0
    2.4321    3.0509  -24.4340 O   0  0  0  0  0  0  0  0  0  0  0  0
  1  2  2  0
  2  3  1  0
  2  4  1  0
  2  5  1  0
  5  6  1  0
  6  7  2  0
  6  8  1  6
  6  9  1  0
  9 10  1  0
 11 10  1  6
 11 12  1  0
 11 13  1  0
 13 14  1  1
 13 15  1  0
 12 16  1  0
 15 16  1  0
 16 17  1  1
 17 18  4  0
 18 19  4  0
 19 20  4  0
 17 21  4  0
 20 21  4  0
 21 22  4  0
 22 23  4  0
 23 24  1  0
 23 25  4  0
 20 26  4  0
 25 26  4  0
 26 27  2  0
M  END
