1XOQ_ROF_B_501
     RDKit          3D

 26 28  0  0  0  0  0  0  0  0999 V2000
   22.6470   20.9330   95.3140 O   0  0  0  0  0  0  0  0  0  0  0  0
   25.6930   16.3610   99.7960 C   0  0  0  0  0  0  0  0  0  0  0  0
   26.8180   16.6540   98.7740 C   0  0  0  0  0  0  0  0  0  0  0  0
   25.8470   17.6630   99.2810 C   0  0  0  0  0  0  0  0  0  0  0  0
   21.9140   21.5700   96.0870 C   0  0  0  0  0  0  0  0  0  0  0  0
   22.1420   21.4560   97.5460 C   0  0  0  0  0  0  0  0  0  0  0  0
   21.4590   22.2270   98.4930 C   0  0  0  0  0  0  0  0  0  0  0  0
   21.7260   22.0640   99.8580 C   0  0  0  0  0  0  0  0  0  0  0  0
   22.6740   21.1260  100.3060 C   0  0  0  0  0  0  0  0  0  0  0  0
   22.9880   20.9160  101.6330 O   0  0  0  0  0  0  0  0  0  0  0  0
   22.5860   21.7950  102.6720 C   0  0  0  0  0  0  0  0  0  0  0  0
   21.2650   21.7020  102.7720 F   0  0  0  0  0  0  0  0  0  0  0  0
   22.9860   23.0410  102.3750 F   0  0  0  0  0  0  0  0  0  0  0  0
   23.3440   20.3430   99.3700 C   0  0  0  0  0  0  0  0  0  0  0  0
   24.2750   19.4250   99.8160 O   0  0  0  0  0  0  0  0  0  0  0  0
   25.0500   18.8290   98.7750 C   0  0  0  0  0  0  0  0  0  0  0  0
   23.0780   20.5180   97.9980 C   0  0  0  0  0  0  0  0  0  0  0  0
   20.9540   22.3430   95.5880 N   0  0  0  0  0  0  0  0  0  0  0  0
   20.7150   22.4370   94.1990 C   0  0  0  0  0  0  0  0  0  0  0  0
   20.8810   23.6610   93.5280 C   0  0  0  0  0  0  0  0  0  0  0  0
   21.4430   25.0540   94.3920 Cl  0  0  0  0  0  0  0  0  0  0  0  0
   20.6110   23.7170   92.1620 C   0  0  0  0  0  0  0  0  0  0  0  0
   20.1950   22.6330   91.4840 N   0  0  0  0  0  0  0  0  0  0  0  0
   20.0260   21.4460   92.0890 C   0  0  0  0  0  0  0  0  0  0  0  0
   20.2670   21.3230   93.4660 C   0  0  0  0  0  0  0  0  0  0  0  0
   19.9900   19.7940   94.2420 Cl  0  0  0  0  0  0  0  0  0  0  0  0
  2  3  1  0
  2  4  1  0
  3  4  1  0
  1  5  2  0
  5  6  1  0
  6  7  2  0
  7  8  1  0
  8  9  2  0
  9 10  1  0
 10 11  1  0
 11 12  1  0
 11 13  1  0
  9 14  1  0
 14 15  1  0
  4 16  1  0
 15 16  1  0
  6 17  1  0
 14 17  2  0
  5 18  1  0
 18 19  1  0
 19 20  2  0
 20 21  1  0
 20 22  1  0
 22 23  2  0
 23 24  1  0
 19 25  1  0
 24 25  2  0
 25 26  1  0
M  END
$$$$
1XOQ_ROF_A_502
     RDKit          3D

 26 28  0  0  0  0  0  0  0  0999 V2000
   14.4670   29.3330   55.4470 O   0  0  0  0  0  0  0  0  0  0  0  0
   12.2940   34.0110   50.5240 C   0  0  0  0  0  0  0  0  0  0  0  0
   13.2130   34.7760   51.4750 C   0  0  0  0  0  0  0  0  0  0  0  0
   13.4880   33.3980   51.0880 C   0  0  0  0  0  0  0  0  0  0  0  0
   14.3680   28.2670   54.8280 C   0  0  0  0  0  0  0  0  0  0  0  0
   14.1730   28.3350   53.3630 C   0  0  0  0  0  0  0  0  0  0  0  0
   14.1450   27.2090   52.5320 C   0  0  0  0  0  0  0  0  0  0  0  0
   13.9400   27.3560   51.1490 C   0  0  0  0  0  0  0  0  0  0  0  0
   13.7900   28.6400   50.5920 C   0  0  0  0  0  0  0  0  0  0  0  0
   13.5900   28.8740   49.2590 O   0  0  0  0  0  0  0  0  0  0  0  0
   13.9070   27.8890   48.2820 C   0  0  0  0  0  0  0  0  0  0  0  0
   13.0380   26.8940   48.3900 F   0  0  0  0  0  0  0  0  0  0  0  0
   15.1600   27.4650   48.4490 F   0  0  0  0  0  0  0  0  0  0  0  0
   13.8040   29.7510   51.4160 C   0  0  0  0  0  0  0  0  0  0  0  0
   13.6450   30.9910   50.8550 O   0  0  0  0  0  0  0  0  0  0  0  0
   13.9570   32.1060   51.6840 C   0  0  0  0  0  0  0  0  0  0  0  0
   14.0010   29.5930   52.7940 C   0  0  0  0  0  0  0  0  0  0  0  0
   14.4570   27.0870   55.4590 N   0  0  0  0  0  0  0  0  0  0  0  0
   14.6180   26.9290   56.8680 C   0  0  0  0  0  0  0  0  0  0  0  0
   15.7500   26.3280   57.4250 C   0  0  0  0  0  0  0  0  0  0  0  0
   17.0390   25.8210   56.4070 Cl  0  0  0  0  0  0  0  0  0  0  0  0
   15.8430   26.1570   58.8080 C   0  0  0  0  0  0  0  0  0  0  0  0
   14.8460   26.5700   59.6120 N   0  0  0  0  0  0  0  0  0  0  0  0
   13.7380   27.1360   59.1220 C   0  0  0  0  0  0  0  0  0  0  0  0
   13.5970   27.3190   57.7410 C   0  0  0  0  0  0  0  0  0  0  0  0
   12.1660   28.0480   57.1000 Cl  0  0  0  0  0  0  0  0  0  0  0  0
  2  3  1  0
  2  4  1  0
  3  4  1  0
  1  5  2  0
  5  6  1  0
  6  7  2  0
  7  8  1  0
  8  9  2  0
  9 10  1  0
 10 11  1  0
 11 12  1  0
 11 13  1  0
  9 14  1  0
 14 15  1  0
  4 16  1  0
 15 16  1  0
  6 17  1  0
 14 17  2  0
  5 18  1  0
 18 19  1  0
 19 20  2  0
 20 21  1  0
 20 22  1  0
 22 23  2  0
 23 24  1  0
 19 25  1  0
 24 25  2  0
 25 26  1  0
M  END
$$$$
