7R3D_APR_BBB_401
     RDKit          3D

 36 39  0  0  0  0  0  0  0  0999 V2000
   19.6070   27.8920  -49.0780 N   0  0  0  0  0  0  0  0  0  0  0  0
   19.9530   27.4700  -50.3010 C   0  0  0  0  0  0  0  0  0  0  0  0
   19.6140   26.3560  -50.9380 N   0  0  0  0  0  0  0  0  0  0  0  0
   18.8170   25.5960  -50.1700 C   0  0  0  0  0  0  0  0  0  0  0  0
   18.3680   25.8910  -48.8990 C   0  0  0  0  0  0  0  0  0  0  0  0
   18.7840   27.1080  -48.3380 C   0  0  0  0  0  0  0  0  0  0  0  0
   18.4130   27.5340  -47.1360 N   0  0  0  0  0  0  0  0  0  0  0  0
   17.5670   24.8580  -48.4330 N   0  0  0  0  0  0  0  0  0  0  0  0
   17.5490   23.9780  -49.4000 C   0  0  0  0  0  0  0  0  0  0  0  0
   18.2820   24.3780  -50.4790 N   0  0  0  0  0  0  0  0  0  0  0  0
   18.4540   23.6620  -51.7230 C   0  0  1  0  0  0  0  0  0  0  0  0
   18.9180   22.2250  -51.5610 C   0  0  2  0  0  0  0  0  0  0  0  0
   20.3130   22.2400  -51.3510 O   0  0  0  0  0  0  0  0  0  0  0  0
   18.4430   21.6180  -52.8820 C   0  0  2  0  0  0  0  0  0  0  0  0
   19.3620   21.8710  -53.9370 O   0  0  0  0  0  0  0  0  0  0  0  0
   17.1970   23.5680  -52.3430 O   0  0  0  0  0  0  0  0  0  0  0  0
   17.1330   22.3670  -53.1590 C   0  0  2  0  0  0  0  0  0  0  0  0
   15.8720   21.6130  -52.8320 C   0  0  0  0  0  0  0  0  0  0  0  0
   16.0000   21.0540  -51.4890 O   0  0  0  0  0  0  0  0  0  0  0  0
   14.9590   19.9620  -51.0010 P   0  0  2  0  0  0  0  0  0  0  0  0
   15.3520   19.4940  -49.6410 O   0  0  0  0  0  0  0  0  0  0  0  0
   14.7300   18.9230  -52.0580 O   0  0  0  0  0  0  0  0  0  0  0  0
   13.6440   20.8800  -50.9790 O   0  0  0  0  0  0  0  0  0  0  0  0
   12.2550   20.8000  -50.1960 P   0  0  1  0  0  0  0  0  0  0  0  0
   12.4130   21.3430  -48.8030 O   0  0  0  0  0  0  0  0  0  0  0  0
   11.2080   21.3960  -51.0880 O   0  0  0  0  0  0  0  0  0  0  0  0
   11.9850   19.2530  -50.0530 O   0  0  0  0  0  0  0  0  0  0  0  0
   11.3750   18.5130  -51.1280 C   0  0  0  0  0  0  0  0  0  0  0  0
   10.5230   16.9550  -49.5130 O   0  0  0  0  0  0  0  0  0  0  0  0
    8.2890   16.5940  -49.0090 O   0  0  0  0  0  0  0  0  0  0  0  0
    9.4140   16.1020  -49.6920 C   0  0  1  0  0  0  0  0  0  0  0  0
    8.5370   14.9010  -51.6530 O   0  0  0  0  0  0  0  0  0  0  0  0
    9.2010   16.0630  -51.2050 C   0  0  2  0  0  0  0  0  0  0  0  0
   11.2860   14.9050  -51.8590 O   0  0  0  0  0  0  0  0  0  0  0  0
   10.6200   16.1570  -51.7610 C   0  0  2  0  0  0  0  0  0  0  0  0
   11.2970   17.0660  -50.7280 C   0  0  1  0  0  0  0  0  0  0  0  0
  1  2  2  0
  2  3  1  0
  3  4  2  0
  4  5  1  0
  1  6  1  0
  5  6  2  0
  6  7  1  0
  5  8  1  0
  8  9  2  0
  4 10  1  0
  9 10  1  0
 11 10  1  1
 11 12  1  0
 12 13  1  6
 12 14  1  0
 14 15  1  6
 11 16  1  0
 14 17  1  0
 16 17  1  0
 17 18  1  1
 18 19  1  0
 19 20  1  0
 20 21  2  0
 20 22  1  6
 20 23  1  0
 23 24  1  0
 24 25  2  0
 24 26  1  6
 24 27  1  0
 27 28  1  0
 29 31  1  0
 31 30  1  1
 31 33  1  0
 33 32  1  1
 33 35  1  0
 35 34  1  1
 36 28  1  6
 29 36  1  0
 35 36  1  0
M  END
$$$$
7R3D_APR_AAA_401
     RDKit          3D

 36 39  0  0  0  0  0  0  0  0999 V2000
  -16.6620   12.6340  -12.1110 N   0  0  0  0  0  0  0  0  0  0  0  0
  -16.8500   12.8340  -10.8040 C   0  0  0  0  0  0  0  0  0  0  0  0
  -16.0410   13.3860   -9.9070 N   0  0  0  0  0  0  0  0  0  0  0  0
  -14.8810   13.7420  -10.4870 C   0  0  0  0  0  0  0  0  0  0  0  0
  -14.5360   13.5980  -11.8100 C   0  0  0  0  0  0  0  0  0  0  0  0
  -15.4880   13.0300  -12.6680 C   0  0  0  0  0  0  0  0  0  0  0  0
  -15.2980   12.8520  -13.9680 N   0  0  0  0  0  0  0  0  0  0  0  0
  -13.2550   14.0820  -12.0290 N   0  0  0  0  0  0  0  0  0  0  0  0
  -12.8470   14.4940  -10.8530 C   0  0  0  0  0  0  0  0  0  0  0  0
  -13.8000   14.3160   -9.8860 N   0  0  0  0  0  0  0  0  0  0  0  0
  -13.6910   14.6680   -8.4880 C   0  0  1  0  0  0  0  0  0  0  0  0
  -12.4330   14.1440   -7.8110 C   0  0  2  0  0  0  0  0  0  0  0  0
  -12.5940   12.7950   -7.4370 O   0  0  0  0  0  0  0  0  0  0  0  0
  -12.3000   15.1280   -6.6490 C   0  0  2  0  0  0  0  0  0  0  0  0
  -13.0710   14.7700   -5.5080 O   0  0  0  0  0  0  0  0  0  0  0  0
  -13.5980   16.0630   -8.4070 O   0  0  0  0  0  0  0  0  0  0  0  0
  -12.8130   16.4420   -7.2480 C   0  0  2  0  0  0  0  0  0  0  0  0
  -11.7480   17.4200   -7.6640 C   0  0  0  0  0  0  0  0  0  0  0  0
  -10.7430   16.7110   -8.4290 O   0  0  0  0  0  0  0  0  0  0  0  0
   -9.3780   17.4630   -8.7510 P   0  0  2  0  0  0  0  0  0  0  0  0
   -8.4730   16.5270   -9.4580 O   0  0  0  0  0  0  0  0  0  0  0  0
   -8.8520   18.1240   -7.5160 O   0  0  0  0  0  0  0  0  0  0  0  0
   -9.9070   18.6340   -9.7040 O   0  0  0  0  0  0  0  0  0  0  0  0
   -9.1960   19.5200  -10.8140 P   0  0  1  0  0  0  0  0  0  0  0  0
   -9.1740   18.7470  -12.0980 O   0  0  0  0  0  0  0  0  0  0  0  0
   -9.8190   20.8700  -10.7610 O   0  0  0  0  0  0  0  0  0  0  0  0
   -7.6840   19.6150  -10.3040 O   0  0  0  0  0  0  0  0  0  0  0  0
   -7.2970   20.6590   -9.3920 C   0  0  0  0  0  0  0  0  0  0  0  0
   -5.0510   20.6270  -10.2730 O   0  0  0  0  0  0  0  0  0  0  0  0
   -4.1490   22.4010  -11.4210 O   0  0  0  0  0  0  0  0  0  0  0  0
   -4.1840   21.7320  -10.1890 C   0  0  1  0  0  0  0  0  0  0  0  0
   -3.7950   23.4080   -8.4020 O   0  0  0  0  0  0  0  0  0  0  0  0
   -4.7400   22.5780   -9.0390 C   0  0  2  0  0  0  0  0  0  0  0  0
   -4.3860   20.9780   -7.1720 O   0  0  0  0  0  0  0  0  0  0  0  0
   -5.3170   21.5450   -8.0820 C   0  0  2  0  0  0  0  0  0  0  0  0
   -5.8400   20.5000   -9.0690 C   0  0  1  0  0  0  0  0  0  0  0  0
  1  2  2  0
  2  3  1  0
  3  4  2  0
  4  5  1  0
  1  6  1  0
  5  6  2  0
  6  7  1  0
  5  8  1  0
  8  9  2  0
  4 10  1  0
  9 10  1  0
 11 10  1  6
 11 12  1  0
 12 13  1  1
 12 14  1  0
 14 15  1  1
 11 16  1  0
 14 17  1  0
 16 17  1  0
 17 18  1  6
 18 19  1  0
 19 20  1  0
 20 21  2  0
 20 22  1  1
 20 23  1  0
 23 24  1  0
 24 25  2  0
 24 26  1  6
 24 27  1  0
 27 28  1  0
 29 31  1  0
 31 30  1  6
 31 33  1  0
 33 32  1  1
 33 35  1  0
 35 34  1  1
 36 28  1  6
 29 36  1  0
 35 36  1  0
M  END
$$$$
