7R3D_APR_AAA_401
     RDKit          3D

 59 62  0  0  0  0  0  0  0  0999 V2000
    3.3701    3.4285    2.7726 N   0  0  0  0  0  0  0  0  0  0  0  0
    2.3420    3.8065    1.9468 C   0  0  0  0  0  0  0  0  0  0  0  0
    1.8523    2.9410    1.0079 N   0  0  0  0  0  0  0  0  0  0  0  0
    2.4120    1.7096    0.9265 C   0  0  0  0  0  0  0  0  0  0  0  0
    3.4262    1.3131    1.7276 C   0  0  0  0  0  0  0  0  0  0  0  0
    3.9346    2.1856    2.6834 C   0  0  0  0  0  0  0  0  0  0  0  0
    5.0002    1.8093    3.5556 N   0  0  0  0  0  0  0  0  0  0  0  0
    3.7955    0.0513    1.4347 N   0  0  0  0  0  0  0  0  0  0  0  0
    2.9502   -0.2807    0.4190 C   0  0  0  0  0  0  0  0  0  0  0  0
    2.0845    0.7130    0.0940 N   0  0  0  0  0  0  0  0  0  0  0  0
    1.0989    0.7310   -0.9857 C   0  0  1  0  0  0  0  0  0  0  0  0
    1.7749    1.0023   -2.3416 C   0  0  2  0  0  0  0  0  0  0  0  0
    1.3384    2.2212   -2.8993 O   0  0  0  0  0  0  0  0  0  0  0  0
    1.3785   -0.2006   -3.1836 C   0  0  2  0  0  0  0  0  0  0  0  0
    0.9998    0.1471   -4.4906 O   0  0  0  0  0  0  0  0  0  0  0  0
    0.4428   -0.5173   -1.0456 O   0  0  0  0  0  0  0  0  0  0  0  0
    0.1994   -0.7665   -2.4071 C   0  0  2  0  0  0  0  0  0  0  0  0
    0.0087   -2.2662   -2.6428 C   0  0  0  0  0  0  0  0  0  0  0  0
   -1.1154   -2.6991   -1.9136 O   0  0  0  0  0  0  0  0  0  0  0  0
   -1.5204   -4.2852   -2.4000 P   0  0  2  0  0  5  0  0  0  0  0  0
   -0.2827   -5.1524   -2.5195 O   0  0  0  0  0  0  0  0  0  0  0  0
   -2.2983   -4.2175   -3.9057 O   0  0  0  0  0  0  0  0  0  0  0  0
   -2.5995   -4.9868   -1.2878 O   0  0  0  0  0  0  0  0  0  0  0  0
   -1.9445   -4.7766    0.2714 P   0  0  1  0  0  5  0  0  0  0  0  0
   -2.7244   -5.6390    1.2413 O   0  0  0  0  0  0  0  0  0  0  0  0
   -0.3208   -5.2582    0.3132 O   0  0  0  0  0  0  0  0  0  0  0  0
   -2.0453   -3.1453    0.7600 O   0  0  0  0  0  0  0  0  0  0  0  0
   -3.3825   -2.7163    0.6272 C   0  0  0  0  0  0  0  0  0  0  0  0
   -3.0667   -1.2700    2.5303 O   0  0  0  0  0  0  0  0  0  0  0  0
   -0.8092   -0.8951    2.6399 O   0  0  0  0  0  0  0  0  0  0  0  0
   -2.0695   -0.2757    2.6279 C   0  0  1  0  0  0  0  0  0  0  0  0
   -3.0831    1.6969    1.7089 O   0  0  0  0  0  0  0  0  0  0  0  0
   -2.1865    0.6531    1.4247 C   0  0  2  0  0  0  0  0  0  0  0  0
   -3.5852    0.4280   -0.5238 O   0  0  0  0  0  0  0  0  0  0  0  0
   -2.7508   -0.2619    0.3707 C   0  0  2  0  0  0  0  0  0  0  0  0
   -3.5251   -1.2979    1.1926 C   0  0  1  0  0  0  0  0  0  0  0  0
    1.9145    4.7947    2.0408 H   0  0  0  0  0  0  0  0  0  0  0  0
    5.4217    0.8554    3.5080 H   0  0  0  0  0  0  0  0  0  0  0  0
    5.3721    2.4869    4.2525 H   0  0  0  0  0  0  0  0  0  0  0  0
    2.9739   -1.2400   -0.0821 H   0  0  0  0  0  0  0  0  0  0  0  0
    0.3339    1.5114   -0.7651 H   0  0  0  0  0  0  0  0  0  0  0  0
    2.8834    1.0388   -2.2451 H   0  0  0  0  0  0  0  0  0  0  0  0
    0.3487    2.1822   -2.9883 H   0  0  0  0  0  0  0  0  0  0  0  0
    2.2175   -0.9388   -3.2003 H   0  0  0  0  0  0  0  0  0  0  0  0
    1.8349    0.3946   -4.9624 H   0  0  0  0  0  0  0  0  0  0  0  0
   -0.7400   -0.2408   -2.7038 H   0  0  0  0  0  0  0  0  0  0  0  0
   -0.1294   -2.4244   -3.7355 H   0  0  0  0  0  0  0  0  0  0  0  0
    0.9168   -2.8077   -2.2947 H   0  0  0  0  0  0  0  0  0  0  0  0
   -1.5698   -4.1949   -4.5774 H   0  0  0  0  0  0  0  0  0  0  0  0
   -0.0900   -5.2886    1.2745 H   0  0  0  0  0  0  0  0  0  0  0  0
   -3.6891   -2.7051   -0.4435 H   0  0  0  0  0  0  0  0  0  0  0  0
   -4.0742   -3.3790    1.1960 H   0  0  0  0  0  0  0  0  0  0  0  0
   -0.1666   -0.2319    3.0085 H   0  0  0  0  0  0  0  0  0  0  0  0
   -2.2211    0.2882    3.5773 H   0  0  0  0  0  0  0  0  0  0  0  0
   -2.5719    2.3757    2.2225 H   0  0  0  0  0  0  0  0  0  0  0  0
   -1.1962    1.0603    1.1117 H   0  0  0  0  0  0  0  0  0  0  0  0
   -3.7584   -0.1952   -1.2787 H   0  0  0  0  0  0  0  0  0  0  0  0
   -1.9056   -0.7338   -0.1787 H   0  0  0  0  0  0  0  0  0  0  0  0
   -4.6068   -1.0302    1.1954 H   0  0  0  0  0  0  0  0  0  0  0  0
  1  2  2  0
  2  3  1  0
  3  4  2  0
  4  5  1  0
  1  6  1  0
  5  6  2  0
  6  7  1  0
  5  8  1  0
  8  9  2  0
  4 10  1  0
  9 10  1  0
 11 10  1  0
 11 12  1  0
 12 13  1  0
 12 14  1  0
 14 15  1  0
 11 16  1  0
 14 17  1  0
 16 17  1  0
 17 18  1  0
 18 19  1  0
 20 19  1  1
 20 21  2  0
 20 22  1  0
 20 23  1  0
 24 23  1  6
 24 25  2  0
 24 26  1  0
 24 27  1  0
 27 28  1  0
 29 31  1  0
 31 30  1  0
 31 33  1  0
 33 32  1  0
 33 35  1  0
 35 34  1  0
 36 28  1  0
 29 36  1  0
 35 36  1  0
  2 37  1  0
  7 38  1  0
  7 39  1  0
  9 40  1  0
 11 41  1  1
 12 42  1  1
 13 43  1  0
 14 44  1  6
 15 45  1  0
 17 46  1  6
 18 47  1  0
 18 48  1  0
 22 49  1  0
 26 50  1  0
 28 51  1  0
 28 52  1  0
 30 53  1  0
 31 54  1  1
 32 55  1  0
 33 56  1  6
 34 57  1  0
 35 58  1  6
 36 59  1  1
M  END
