
     RDKit          3D

 11 10  0  0  0  0  0  0  0  0999 V2000
   17.1612   17.4465  -27.2809 N   0  0  0  0  0  0  0  0  0  0  0  0
   19.0761   18.3541  -26.1470 C   0  0  0  0  0  0  0  0  0  0  0  0
   20.1022   18.1398  -25.5156 O   0  0  0  0  0  0  0  0  0  0  0  0
   18.8918   15.8080  -26.5874 C   0  0  0  0  0  0  0  0  0  0  0  0
   20.4617   14.3299  -27.5245 C   0  0  0  0  0  0  0  0  0  0  0  0
   19.7416   13.4055  -28.4883 C   0  0  0  0  0  0  0  0  0  0  0  0
   18.5086   19.7175  -26.4032 C   0  0  0  0  0  0  0  0  0  0  0  0
   18.3128   17.1926  -26.7183 C   0  0  0  0  0  0  0  0  0  0  0  0
   19.8420   15.6219  -27.5246 O   0  0  0  0  0  0  0  0  0  0  0  0
   16.5468   16.2735  -27.7373 O   0  0  0  0  0  0  0  0  0  0  0  0
   18.5242   15.0435  -25.7131 O   0  0  0  0  0  0  0  0  0  0  0  0
  2  3  2  0
  5  6  1  0
  2  7  1  0
  1  8  2  0
  4  8  1  0
  2  8  1  0
  4  9  1  0
  5  9  1  0
  1 10  1  0
  4 11  2  0
M  END
