7ORW_7WA_A_203
     RDKit          3D

 10 11  0  0  0  0  0  0  0  0999 V2000
    5.7311   93.9294   21.2989 C   0  0  0  0  0  0  0  0  0  0  0  0
    6.0145   94.4794   23.6611 N   0  0  0  0  0  0  0  0  0  0  0  0
    5.4590   93.7123   22.6747 C   0  0  0  0  0  0  0  0  0  0  0  0
    4.5911   92.6786   23.0042 C   0  0  0  0  0  0  0  0  0  0  0  0
    4.0107   91.8793   21.9991 C   0  0  0  0  0  0  0  0  0  0  0  0
    4.2757   92.0750   20.6583 C   0  0  0  0  0  0  0  0  0  0  0  0
    5.1470   93.1024   20.3325 C   0  0  0  0  0  0  0  0  0  0  0  0
    5.6194   93.5555   19.1241 N   0  0  0  0  0  0  0  0  0  0  0  0
    6.4318   94.5911   19.3860 C   0  0  0  0  0  0  0  0  0  0  0  0
    6.5484   94.8601   20.6666 N   0  0  0  0  0  0  0  0  0  0  0  0
  2  3  1  0
  1  3  2  0
  3  4  1  0
  4  5  2  0
  5  6  1  0
  6  7  2  0
  1  7  1  0
  7  8  1  0
  8  9  1  0
  1 10  1  0
  9 10  2  0
M  END
