1TOW_CRZ_A_501
     RDKit          3D

 19 21  0  0  0  0  0  0  0  0999 V2000
   15.9609   -1.2265    2.2716 O   0  0  0  0  0  0  0  0  0  0  0  0
   16.7868   -0.1539    2.6796 C   0  0  0  0  0  0  0  0  0  0  0  0
   16.3987    0.4787    3.6643 O   0  0  0  0  0  0  0  0  0  0  0  0
   17.9955    0.0668    1.8809 C   0  0  0  0  0  0  0  0  0  0  0  0
   18.8344    1.2327    2.2168 C   0  0  0  0  0  0  0  0  0  0  0  0
   19.0371    1.6269    3.6168 C   0  0  0  0  0  0  0  0  0  0  0  0
   19.7852    2.8063    3.8774 N   0  0  0  0  0  0  0  0  0  0  0  0
   19.3019    4.0445    4.1436 C   0  0  0  0  0  0  0  0  0  0  0  0
   18.0068    4.5288    4.2866 C   0  0  0  0  0  0  0  0  0  0  0  0
   20.3870    4.8849    4.2747 C   0  0  0  0  0  0  0  0  0  0  0  0
   20.1609    6.2262    4.5528 C   0  0  0  0  0  0  0  0  0  0  0  0
   18.8751    6.7334    4.7002 C   0  0  0  0  0  0  0  0  0  0  0  0
   17.7786    5.8792    4.5667 C   0  0  0  0  0  0  0  0  0  0  0  0
   21.5285    4.1531    4.0873 C   0  0  0  0  0  0  0  0  0  0  0  0
   21.1507    2.8560    3.8394 C   0  0  0  0  0  0  0  0  0  0  0  0
   22.0847    1.8679    3.6078 C   0  0  0  0  0  0  0  0  0  0  0  0
   22.8823    4.4871    4.1071 C   0  0  0  0  0  0  0  0  0  0  0  0
   23.8523    3.5113    3.8766 C   0  0  0  0  0  0  0  0  0  0  0  0
   23.4228    2.2236    3.6326 C   0  0  0  0  0  0  0  0  0  0  0  0
  1  2  1  0
  2  3  2  0
  2  4  1  0
  4  5  1  0
  5  6  1  0
  6  7  1  0
  7  8  1  0
  8  9  2  0
  8 10  1  0
 10 11  2  0
 11 12  1  0
  9 13  1  0
 12 13  2  0
 10 14  1  0
  7 15  1  0
 14 15  2  0
 15 16  1  0
 14 17  1  0
 17 18  2  0
 16 19  2  0
 18 19  1  0
M  END
$$$$
