1TOW_CRZ_A_501
     RDKit          3D

 19 21  0  0  0  0  0  0  0  0999 V2000
    5.3567  -10.2016   -3.5056 O   0  0  0  0  0  0  0  0  0  0  0  0
    5.5748  -11.4436   -2.8660 C   0  0  0  0  0  0  0  0  0  0  0  0
    4.7680  -12.3361   -3.1364 O   0  0  0  0  0  0  0  0  0  0  0  0
    6.7297  -11.5096   -1.9664 C   0  0  0  0  0  0  0  0  0  0  0  0
    7.4313  -10.2488   -1.6598 C   0  0  0  0  0  0  0  0  0  0  0  0
    7.1676   -9.5351   -0.4039 C   0  0  0  0  0  0  0  0  0  0  0  0
    7.9120   -8.3547   -0.1369 N   0  0  0  0  0  0  0  0  0  0  0  0
    7.4592   -7.0770   -0.1479 C   0  0  0  0  0  0  0  0  0  0  0  0
    6.1962   -6.5373   -0.3623 C   0  0  0  0  0  0  0  0  0  0  0  0
    8.5392   -6.2608    0.1132 C   0  0  0  0  0  0  0  0  0  0  0  0
    8.3408   -4.8874    0.1580 C   0  0  0  0  0  0  0  0  0  0  0  0
    7.0874   -4.3248   -0.0531 C   0  0  0  0  0  0  0  0  0  0  0  0
    5.9959   -5.1546   -0.3173 C   0  0  0  0  0  0  0  0  0  0  0  0
    9.6471   -7.0468    0.2823 C   0  0  0  0  0  0  0  0  0  0  0  0
    9.2534   -8.3534    0.1258 C   0  0  0  0  0  0  0  0  0  0  0  0
   10.1530   -9.3928    0.2388 C   0  0  0  0  0  0  0  0  0  0  0  0
   10.9820   -6.7557    0.5615 C   0  0  0  0  0  0  0  0  0  0  0  0
   11.9172   -7.7839    0.6821 C   0  0  0  0  0  0  0  0  0  0  0  0
   11.4728   -9.0790    0.5164 C   0  0  0  0  0  0  0  0  0  0  0  0
  1  2  1  0
  2  3  2  0
  2  4  1  0
  4  5  1  0
  5  6  1  0
  6  7  1  0
  7  8  1  0
  8  9  2  0
  8 10  1  0
 10 11  2  0
 11 12  1  0
  9 13  1  0
 12 13  2  0
 10 14  1  0
  7 15  1  0
 14 15  2  0
 15 16  1  0
 14 17  1  0
 17 18  2  0
 16 19  2  0
 18 19  1  0
M  END
$$$$
