1TOW_CRZ_A_501
     RDKit          3D

 19 21  0  0  0  0  0  0  0  0999 V2000
   14.4935    4.8359  -10.5191 O   0  0  0  0  0  0  0  0  0  0  0  0
   13.2424    4.6912  -11.1616 C   0  0  0  0  0  0  0  0  0  0  0  0
   12.5656    3.7229  -10.8079 O   0  0  0  0  0  0  0  0  0  0  0  0
   12.9121    5.7091  -12.1627 C   0  0  0  0  0  0  0  0  0  0  0  0
   12.8494    7.1134  -11.7159 C   0  0  0  0  0  0  0  0  0  0  0  0
   12.6031    7.4368  -10.3048 C   0  0  0  0  0  0  0  0  0  0  0  0
   12.5022    8.8063   -9.9407 N   0  0  0  0  0  0  0  0  0  0  0  0
   11.3821    9.4825   -9.5860 C   0  0  0  0  0  0  0  0  0  0  0  0
   10.0613    9.0796   -9.4260 C   0  0  0  0  0  0  0  0  0  0  0  0
   11.7495   10.7940   -9.3722 C   0  0  0  0  0  0  0  0  0  0  0  0
   10.7736   11.7059   -8.9934 C   0  0  0  0  0  0  0  0  0  0  0  0
    9.4467   11.3265   -8.8272 C   0  0  0  0  0  0  0  0  0  0  0  0
    9.0783    9.9973   -9.0446 C   0  0  0  0  0  0  0  0  0  0  0  0
   13.0946   10.9108   -9.5982 C   0  0  0  0  0  0  0  0  0  0  0  0
   13.5624    9.6691   -9.9530 C   0  0  0  0  0  0  0  0  0  0  0  0
   14.8938    9.4604  -10.2465 C   0  0  0  0  0  0  0  0  0  0  0  0
   13.9767   11.9887   -9.5308 C   0  0  0  0  0  0  0  0  0  0  0  0
   15.3296   11.8113   -9.8216 C   0  0  0  0  0  0  0  0  0  0  0  0
   15.7506   10.5457  -10.1726 C   0  0  0  0  0  0  0  0  0  0  0  0
  1  2  1  0
  2  3  2  0
  2  4  1  0
  4  5  1  0
  5  6  1  0
  6  7  1  0
  7  8  1  0
  8  9  2  0
  8 10  1  0
 10 11  2  0
 11 12  1  0
  9 13  1  0
 12 13  2  0
 10 14  1  0
  7 15  1  0
 14 15  2  0
 15 16  1  0
 14 17  1  0
 17 18  2  0
 16 19  2  0
 18 19  1  0
M  END
$$$$
