1TOW_CRZ_A_501
     RDKit          3D

 19 21  0  0  0  0  0  0  0  0999 V2000
   -2.7447   -3.2623    1.9636 O   0  0  0  0  0  0  0  0  0  0  0  0
   -1.4284   -3.2195    2.4779 C   0  0  0  0  0  0  0  0  0  0  0  0
   -0.7757   -4.2602    2.3711 O   0  0  0  0  0  0  0  0  0  0  0  0
   -1.0104   -1.9458    3.0699 C   0  0  0  0  0  0  0  0  0  0  0  0
   -0.4730   -0.9134    2.1636 C   0  0  0  0  0  0  0  0  0  0  0  0
   -1.2018   -0.5382    0.9452 C   0  0  0  0  0  0  0  0  0  0  0  0
   -0.6572    0.4907    0.1308 N   0  0  0  0  0  0  0  0  0  0  0  0
    0.2386    0.3538   -0.8774 C   0  0  0  0  0  0  0  0  0  0  0  0
    0.8441   -0.7633   -1.4412 C   0  0  0  0  0  0  0  0  0  0  0  0
    0.5207    1.6197   -1.3452 C   0  0  0  0  0  0  0  0  0  0  0  0
    1.4224    1.7575   -2.3919 C   0  0  0  0  0  0  0  0  0  0  0  0
    2.0402    0.6554   -2.9716 C   0  0  0  0  0  0  0  0  0  0  0  0
    1.7520   -0.6251   -2.4951 C   0  0  0  0  0  0  0  0  0  0  0  0
   -0.2061    2.5236   -0.6182 C   0  0  0  0  0  0  0  0  0  0  0  0
   -0.9406    1.8168    0.3025 C   0  0  0  0  0  0  0  0  0  0  0  0
   -1.7819    2.4533    1.1910 C   0  0  0  0  0  0  0  0  0  0  0  0
   -0.3067    3.9137   -0.6628 C   0  0  0  0  0  0  0  0  0  0  0  0
   -1.1486    4.5880    0.2219 C   0  0  0  0  0  0  0  0  0  0  0  0
   -1.8653    3.8341    1.1275 C   0  0  0  0  0  0  0  0  0  0  0  0
  1  2  1  0
  2  3  2  0
  2  4  1  0
  4  5  1  0
  5  6  1  0
  6  7  1  0
  7  8  1  0
  8  9  2  0
  8 10  1  0
 10 11  2  0
 11 12  1  0
  9 13  1  0
 12 13  2  0
 10 14  1  0
  7 15  1  0
 14 15  2  0
 15 16  1  0
 14 17  1  0
 17 18  2  0
 16 19  2  0
 18 19  1  0
M  END
$$$$
