7F5D_EUO_A_201
     RDKit          3D

 35 37  0  0  0  0  0  0  0  0999 V2000
    5.3868   -4.1569   27.3459 C   0  0  0  0  0  0  0  0  0  0  0  0
    3.9507   -4.9274   28.9189 C   0  0  0  0  0  0  0  0  0  0  0  0
    9.2876   -8.6735   31.3880 C   0  0  0  0  0  0  0  0  0  0  0  0
   10.4321   -6.1362   30.6554 C   0  0  0  0  0  0  0  0  0  0  0  0
   10.9337   -3.9555   30.8619 C   0  0  0  0  0  0  0  0  0  0  0  0
    9.8026   -3.6279   30.1119 C   0  0  0  0  0  0  0  0  0  0  0  0
    9.0088   -4.6736   29.6504 C   0  0  0  0  0  0  0  0  0  0  0  0
    7.7468   -4.4772   28.8153 C   0  0  0  0  0  0  0  0  0  0  0  0
    6.5165   -4.8303   29.3687 C   0  0  0  0  0  0  0  0  0  0  0  0
    5.3234   -4.6652   28.6178 C   0  0  0  0  0  0  0  0  0  0  0  0
    6.6455   -3.8021   26.7811 C   0  0  0  0  0  0  0  0  0  0  0  0
    7.8158   -3.9657   27.5196 C   0  0  0  0  0  0  0  0  0  0  0  0
    3.2618   -4.5529   27.7646 C   0  0  0  0  0  0  0  0  0  0  0  0
   12.4699   -1.9737   30.5140 C   0  0  0  0  0  0  0  0  0  0  0  0
   11.2236   -5.2146   31.1282 N   0  0  0  0  0  0  0  0  0  0  0  0
    9.3587   -5.9002   29.9405 N   0  0  0  0  0  0  0  0  0  0  0  0
    4.1175   -4.1053   26.8562 N   0  0  0  0  0  4  0  0  0  0  0  0
   11.8274   -2.9448   31.3866 N   0  0  0  0  0  0  0  0  0  0  0  0
   11.4673   -8.4575   29.8343 O   0  0  0  0  0  0  0  0  0  0  0  0
   11.7776   -7.8789   32.1121 O   0  0  0  0  0  0  0  0  0  0  0  0
   10.8384   -7.8409   30.9963 S   0  0  2  0  0  6  0  0  0  0  0  0
    3.5574   -5.3083   29.7937 H   0  0  0  0  0  0  0  0  0  0  0  0
    9.4800   -9.7043   31.6010 H   0  0  0  0  0  0  0  0  0  0  0  0
    8.8400   -8.2103   32.2424 H   0  0  0  0  0  0  0  0  0  0  0  0
    8.6225   -8.6000   30.5531 H   0  0  0  0  0  0  0  0  0  0  0  0
    9.5637   -2.6451   29.9071 H   0  0  0  0  0  0  0  0  0  0  0  0
    6.4734   -5.2124   30.3264 H   0  0  0  0  0  0  0  0  0  0  0  0
    6.6909   -3.4228   25.8224 H   0  0  0  0  0  0  0  0  0  0  0  0
    8.7280   -3.7100   27.1104 H   0  0  0  0  0  0  0  0  0  0  0  0
    2.2396   -4.6150   27.6370 H   0  0  0  0  0  0  0  0  0  0  0  0
   13.0851   -1.3216   31.0980 H   0  0  0  0  0  0  0  0  0  0  0  0
   13.0747   -2.4856   29.7948 H   0  0  0  0  0  0  0  0  0  0  0  0
   11.7222   -1.4000   30.0074 H   0  0  0  0  0  0  0  0  0  0  0  0
    3.8712   -3.7829   25.9592 H   0  0  0  0  0  0  0  0  0  0  0  0
   12.0043   -2.9138   32.3546 H   0  0  0  0  0  0  0  0  0  0  0  0
  5  6  4  0
  6  7  4  0
  7  8  1  0
  8  9  4  0
  2 10  4  0
  9 10  4  0
  1 10  4  0
  1 11  4  0
  8 12  4  0
 11 12  4  0
  2 13  4  0
  4 15  4  0
  5 15  4  0
  4 16  4  0
  7 16  4  0
 13 17  4  0
  1 17  4  0
  5 18  1  0
 14 18  1  0
 21  3  1  6
 20 21  2  0
 19 21  2  0
  4 21  1  0
  2 22  1  0
  3 23  1  0
  3 24  1  0
  3 25  1  0
  6 26  1  0
  9 27  1  0
 11 28  1  0
 12 29  1  0
 13 30  1  0
 14 31  1  0
 14 32  1  0
 14 33  1  0
 17 34  1  0
 18 35  1  0
M  CHG  1  17   1
M  END
