8FAV_4Y5_B_602
     RDKit          3D

 43 46  0  0  0  0  0  0  0  0999 V2000
   -1.0203    0.3759    4.5948 C   0  0  0  0  0  0  0  0  0  0  0  0
   -0.7695   -0.7969    3.8606 C   0  0  0  0  0  0  0  0  0  0  0  0
   -0.4451   -0.6642    2.5056 C   0  0  0  0  0  0  0  0  0  0  0  0
   -0.4027    0.5652    1.8966 C   0  0  0  0  0  0  0  0  0  0  0  0
   -0.6196    1.7479    2.6106 C   0  0  0  0  0  0  0  0  0  0  0  0
   -0.0701    0.3026    0.5761 C   0  0  0  0  0  0  0  0  0  0  0  0
   -0.0414   -3.0389    1.7930 C   0  0  0  0  0  0  0  0  0  0  0  0
   -0.0539   -5.6279   -1.6203 C   0  0  0  0  0  0  0  0  0  0  0  0
    1.1096   -5.4486   -0.8767 C   0  0  0  0  0  0  0  0  0  0  0  0
    2.0832    0.1865   -1.2724 F   0  0  0  0  0  0  0  0  0  0  0  0
    1.1381    1.1466   -1.4401 C   0  0  0  0  0  0  0  0  0  0  0  0
    1.2538    2.0365   -2.5129 C   0  0  0  0  0  0  0  0  0  0  0  0
    0.2955    3.0447   -2.7117 C   0  0  0  0  0  0  0  0  0  0  0  0
    0.4228    3.9831   -3.8485 C   0  0  0  0  0  0  0  0  0  0  0  0
    1.4956    3.8765   -4.7300 O   0  0  0  0  0  0  0  0  0  0  0  0
   -0.4372    4.8872   -4.0298 O   0  0  0  0  0  0  0  0  0  0  0  0
   -0.7863    3.1413   -1.8194 C   0  0  0  0  0  0  0  0  0  0  0  0
   -0.9018    2.2530   -0.7468 C   0  0  0  0  0  0  0  0  0  0  0  0
    0.0677    1.2608   -0.5375 C   0  0  0  0  0  0  0  0  0  0  0  0
   -0.4906    2.9673    2.0335 F   0  0  0  0  0  0  0  0  0  0  0  0
   -0.9370    1.6413    3.9760 C   0  0  0  0  0  0  0  0  0  0  0  0
    0.0873   -1.0333    0.4284 N   0  0  0  0  0  0  0  0  0  0  0  0
   -0.1438   -1.6192    1.5983 N   0  0  0  0  0  0  0  0  0  0  0  0
    0.1201   -3.5195    2.9462 O   0  0  0  0  0  0  0  0  0  0  0  0
   -0.0752   -3.9524    0.6333 C   0  0  0  0  0  0  0  0  0  0  0  0
    1.1087   -4.6145    0.2435 C   0  0  0  0  0  0  0  0  0  0  0  0
    2.6229   -4.3879    1.1153 Cl  0  0  0  0  0  0  0  0  0  0  0  0
   -1.2336   -4.9866   -1.2436 C   0  0  0  0  0  0  0  0  0  0  0  0
   -1.2735   -4.1607   -0.1031 C   0  0  0  0  0  0  0  0  0  0  0  0
   -2.5787   -3.4878    0.2838 C   0  0  0  0  0  0  0  0  0  0  0  0
   -3.6612   -4.0977   -0.3272 F   0  0  0  0  0  0  0  0  0  0  0  0
   -2.5486   -2.1617   -0.1038 F   0  0  0  0  0  0  0  0  0  0  0  0
   -2.7754   -3.5588    1.6514 F   0  0  0  0  0  0  0  0  0  0  0  0
   -1.2703    0.3079    5.6456 H   0  0  0  0  0  0  0  0  0  0  0  0
   -0.8362   -1.7591    4.3463 H   0  0  0  0  0  0  0  0  0  0  0  0
   -0.0418   -6.2659   -2.4947 H   0  0  0  0  0  0  0  0  0  0  0  0
    2.0195   -5.9505   -1.1809 H   0  0  0  0  0  0  0  0  0  0  0  0
    2.0945    1.9338   -3.1875 H   0  0  0  0  0  0  0  0  0  0  0  0
    1.5922    4.5140   -5.5114 H   0  0  0  0  0  0  0  0  0  0  0  0
   -1.5490    3.8981   -1.9541 H   0  0  0  0  0  0  0  0  0  0  0  0
   -1.7622    2.3269   -0.0937 H   0  0  0  0  0  0  0  0  0  0  0  0
   -1.1125    2.5360    4.5592 H   0  0  0  0  0  0  0  0  0  0  0  0
   -2.1172   -5.1436   -1.8487 H   0  0  0  0  0  0  0  0  0  0  0  0
  1  2  2  0
  2  3  1  0
  3  4  2  0
  4  5  1  0
  4  6  1  0
  8  9  2  0
 10 11  1  0
 11 12  2  0
 12 13  1  0
 13 14  1  0
 14 15  1  0
 14 16  2  0
 13 17  2  0
 17 18  1  0
  6 19  1  0
 18 19  2  0
 11 19  1  0
  5 20  1  0
  1 21  1  0
  5 21  2  0
  6 22  2  0
  3 23  1  0
  7 23  1  0
 22 23  1  0
  7 24  2  0
  7 25  1  0
 25 26  2  0
  9 26  1  0
 26 27  1  0
  8 28  1  0
 25 29  1  0
 28 29  2  0
 29 30  1  0
 30 31  1  0
 30 32  1  0
 30 33  1  0
  1 34  1  0
  2 35  1  0
  8 36  1  0
  9 37  1  0
 12 38  1  0
 15 39  1  0
 17 40  1  0
 18 41  1  0
 21 42  1  0
 28 43  1  0
M  END
