7BHX_TO5_A_402
     RDKit          3D

 21 23  0  0  0  0  0  0  0  0999 V2000
   44.8870   37.0468   41.9713 C   0  0  0  0  0  0  0  0  0  0  0  0
   45.9662   34.8164   41.4725 C   0  0  0  0  0  0  0  0  0  0  0  0
   46.9596   32.7893   40.7637 C   0  0  0  0  0  0  0  0  0  0  0  0
   48.1646   28.4427   42.7504 C   0  0  0  0  0  0  0  0  0  0  0  0
   46.5018   29.9636   42.1152 C   0  0  0  0  0  0  0  0  0  0  0  0
   46.3640   33.0898   43.0186 C   0  0  0  0  0  0  0  0  0  0  0  0
   46.3007   32.5977   44.3066 C   0  0  0  0  0  0  0  0  0  0  0  0
   45.7685   33.3724   45.3090 C   0  0  0  0  0  0  0  0  0  0  0  0
   45.2937   34.6502   45.0296 C   0  0  0  0  0  0  0  0  0  0  0  0
   45.3451   35.1704   43.7425 C   0  0  0  0  0  0  0  0  0  0  0  0
   45.8855   34.3609   42.7708 C   0  0  0  0  0  0  0  0  0  0  0  0
   45.6955   32.7321   46.9400 Cl  0  0  0  0  0  0  0  0  0  0  0  0
   45.5145   36.1031   41.0650 N   0  0  0  0  0  0  0  0  0  0  0  0
   45.7185   36.4358   39.6541 C   0  0  0  0  0  0  0  0  0  0  0  0
   46.8914   32.3226   42.0243 N   0  0  0  0  0  0  0  0  0  0  0  0
   47.4479   32.0835   39.8342 O   0  0  0  0  0  0  0  0  0  0  0  0
   46.4954   34.0291   40.5097 N   0  0  0  0  0  0  0  0  0  0  0  0
   47.3810   31.0176   42.2870 C   0  0  0  0  0  0  0  0  0  0  0  0
   46.9277   28.7097   42.3542 N   0  0  0  0  0  0  0  0  0  0  0  0
   49.0845   29.4439   42.9392 C   0  0  0  0  0  0  0  0  0  0  0  0
   48.6646   30.7495   42.6974 C   0  0  0  0  0  0  0  0  0  0  0  0
  6  7  2  0
  7  8  1  0
  8  9  2  0
  9 10  1  0
  2 11  1  0
 10 11  2  0
  6 11  1  0
  8 12  1  0
  1 13  1  6
  2 13  1  0
 14 13  1  1
  3 15  1  0
  6 15  1  0
  3 16  2  0
  2 17  2  0
  3 17  1  0
 15 18  1  0
  5 18  2  0
  5 19  1  0
  4 19  2  0
  4 20  1  0
 18 21  1  0
 20 21  2  0
M  END
$$$$
