8AQL_PLG_B_601
     RDKit          3D

 35 35  0  0  0  0  0  0  0  0999 V2000
   -2.1919    9.5028    6.7650 N   0  0  0  0  0  0  0  0  0  0  0  0
   -1.9399    9.4407    8.0972 C   0  0  0  0  0  0  0  0  0  0  0  0
   -1.1484    8.2815    8.6232 C   0  0  0  0  0  0  0  0  0  0  0  0
   -2.4280   10.4536    8.9479 C   0  0  0  0  0  0  0  0  0  0  0  0
   -2.1859   10.4164   10.3252 O   0  0  0  0  0  0  0  0  0  0  0  0
   -3.1718   11.5225    8.3989 C   0  0  0  0  0  0  0  0  0  0  0  0
   -3.7199   12.5989    9.3174 C   0  0  0  0  0  0  0  0  0  0  0  0
   -3.3796   11.5711    6.9952 C   0  0  0  0  0  0  0  0  0  0  0  0
   -2.8909   10.5200    6.2063 C   0  0  0  0  0  0  0  0  0  0  0  0
   -4.1463   12.6861    6.3068 C   0  0  0  0  0  0  0  0  0  0  0  0
   -5.3479   12.9848    6.9871 O   0  0  0  0  0  0  0  0  0  0  0  0
   -5.4861   11.9923    8.3725 P   0  0  1  0  0  5  0  0  0  0  0  0
   -6.1073   12.7702    9.5104 O   0  0  0  0  0  0  0  0  0  0  0  0
   -6.4845   10.6773    8.0041 O   0  0  0  0  0  0  0  0  0  0  0  0
   -3.9675   11.4130    8.8475 O   0  0  0  0  0  0  0  0  0  0  0  0
   -4.7570   10.4525   10.1252 C   0  0  0  0  0  0  0  0  0  0  0  0
   -3.7827   10.1053    9.4056 O   0  0  0  0  0  0  0  0  0  0  0  0
   -4.8408   10.0119   11.4421 O   0  0  0  0  0  0  0  0  0  0  0  0
   -5.7990   11.3773    9.5830 C   0  0  0  0  0  0  0  0  0  0  0  0
   -5.1856   12.6645    9.2345 N   0  0  0  0  0  0  0  0  0  0  0  0
   -0.8601    7.5983    7.7960 H   0  0  0  0  0  0  0  0  0  0  0  0
   -1.7571    7.7075    9.3530 H   0  0  0  0  0  0  0  0  0  0  0  0
   -0.2210    8.6472    9.1121 H   0  0  0  0  0  0  0  0  0  0  0  0
   -1.6584    9.6805   10.7767 H   0  0  0  0  0  0  0  0  0  0  0  0
   -3.4170   12.3627   10.3606 H   0  0  0  0  0  0  0  0  0  0  0  0
   -3.2700   13.5964    9.1170 H   0  0  0  0  0  0  0  0  0  0  0  0
   -3.0594   10.5123    5.1370 H   0  0  0  0  0  0  0  0  0  0  0  0
   -4.3256   12.5121    5.2265 H   0  0  0  0  0  0  0  0  0  0  0  0
   -3.5065   13.5923    6.3446 H   0  0  0  0  0  0  0  0  0  0  0  0
   -6.0557   10.2470    7.2220 H   0  0  0  0  0  0  0  0  0  0  0  0
   -3.6085   10.9585    8.0442 H   0  0  0  0  0  0  0  0  0  0  0  0
   -4.1339    9.3990   11.8305 H   0  0  0  0  0  0  0  0  0  0  0  0
   -6.5927   11.5177   10.3504 H   0  0  0  0  0  0  0  0  0  0  0  0
   -6.2558   10.9107    8.6831 H   0  0  0  0  0  0  0  0  0  0  0  0
   -5.4312   12.8764    8.2384 H   0  0  0  0  0  0  0  0  0  0  0  0
  1  2  4  0
  2  3  1  0
  2  4  4  0
  4  5  1  0
  4  6  4  0
  6  7  1  0
  6  8  4  0
  1  9  4  0
  8  9  4  0
  8 10  1  0
 10 11  1  0
 12 11  1  6
 12 13  2  0
 12 14  1  0
 12 15  1  0
 16 17  2  0
 16 18  1  0
 16 19  1  0
  7 20  1  0
 19 20  1  0
  3 21  1  0
  3 22  1  0
  3 23  1  0
  5 24  1  0
  7 25  1  0
  7 26  1  0
  9 27  1  0
 10 28  1  0
 10 29  1  0
 14 30  1  0
 15 31  1  0
 18 32  1  0
 19 33  1  0
 19 34  1  0
 20 35  1  0
M  END
