
     RDKit          3D

 24 23  0  0  0  0  0  0  0  0999 V2000
   49.7121   82.2526    5.6423 C   0  0  0  0  0  0  0  0  0  0  0  0
   51.2147   82.5500    5.8318 C   0  0  2  0  0  0  0  0  0  0  0  0
   51.6340   82.5251    7.3136 C   0  0  0  0  0  0  0  0  0  0  0  0
   51.4245   81.1707    8.0103 C   0  0  0  0  0  0  0  0  0  0  0  0
   52.6329   80.6073    8.7499 C   0  0  0  0  0  0  0  0  0  0  0  0
   53.5932   79.8977    7.8139 C   0  0  0  0  0  0  0  0  0  0  0  0
   53.9249   78.6203    8.2089 N   0  0  0  0  0  0  0  0  0  0  0  0
   55.2785   78.3305    8.7237 C   0  0  2  0  0  0  0  0  0  0  0  0
   55.9127   77.1112    8.0112 C   0  0  0  0  0  0  0  0  0  0  0  0
   51.5299   83.8870    5.2697 N   0  0  0  0  0  0  0  0  0  0  0  0
   54.0026   80.4054    6.7770 O   0  0  0  0  0  0  0  0  0  0  0  0
   55.2260   78.0299   10.2303 C   0  0  0  0  0  0  0  0  0  0  0  0
   53.5330   77.8665   10.8848 S   0  0  0  0  0  0  0  0  0  0  0  0
   56.8582   77.2246    7.2354 O   0  0  0  0  0  0  0  0  0  0  0  0
   48.9120   83.2154    6.1581 O   0  0  0  0  0  0  0  0  0  0  0  0
   49.2208   81.2944    5.0669 O   0  0  0  0  0  0  0  0  0  0  0  0
   55.4407   75.8850    8.4158 N   0  0  0  0  0  0  0  0  0  0  0  0
   56.3394   74.7735    8.7384 C   0  0  2  0  0  0  0  0  0  0  0  0
   56.6769   73.9945    7.4577 C   0  0  0  0  0  0  0  0  0  0  0  0
   55.7170   73.8911    9.8416 C   0  0  0  0  0  0  0  0  0  0  0  0
   54.8935   74.7126   10.8355 C   0  0  0  0  0  0  0  0  0  0  0  0
   56.7567   73.0448   10.5846 C   0  0  0  0  0  0  0  0  0  0  0  0
   56.5993   74.4049    6.3114 O   0  0  0  0  0  0  0  0  0  0  0  0
   57.1247   72.7365    7.6900 O   0  0  0  0  0  0  0  0  0  0  0  0
  1  2  1  0
  2  3  1  0
  3  4  1  0
  4  5  1  0
  5  6  1  0
  6  7  1  0
  7  8  1  0
  8  9  1  0
  2 10  1  1
  6 11  2  0
  8 12  1  1
 12 13  1  0
  9 14  2  0
  1 15  1  0
  1 16  2  0
  9 17  1  0
 18 17  1  6
 18 19  1  0
 18 20  1  0
 20 21  1  0
 20 22  1  0
 19 23  2  0
 19 24  1  0
M  END
