7LOE_Y84_A_201
     RDKit          3D

 11 12  0  0  0  0  0  0  0  0999 V2000
   32.8089  -12.5157    4.0468 C   0  0  0  0  0  0  0  0  0  0  0  0
   34.3742  -14.1926    4.9338 C   0  0  0  0  0  0  0  0  0  0  0  0
   34.6170  -15.4106    5.5554 C   0  0  0  0  0  0  0  0  0  0  0  0
   33.5449  -16.2157    5.9432 C   0  0  0  0  0  0  0  0  0  0  0  0
   32.2393  -15.8006    5.7033 C   0  0  0  0  0  0  0  0  0  0  0  0
   31.9922  -14.5505    5.0638 C   0  0  0  0  0  0  0  0  0  0  0  0
   30.6587  -14.1155    4.8088 C   0  0  0  0  0  0  0  0  0  0  0  0
   30.4333  -12.8942    4.1829 C   0  0  0  0  0  0  0  0  0  0  0  0
   31.5092  -12.0946    3.7980 C   0  0  0  0  0  0  0  0  0  0  0  0
   33.0405  -13.7655    4.6874 C   0  0  0  0  0  0  0  0  0  0  0  0
   35.4049  -13.3883    4.5465 F   0  0  0  0  0  0  0  0  0  0  0  0
  2  3  2  0
  3  4  1  0
  4  5  2  0
  5  6  1  0
  6  7  1  0
  7  8  2  0
  8  9  1  0
  1  9  2  0
  6 10  2  0
  2 10  1  0
  1 10  1  0
  2 11  1  0
M  END
