1T9B_1CS_B_1695
     RDKit          3D

 23 24  0  0  0  0  0  0  0  0999 V2000
   23.6767   22.8931  141.1627 C   0  0  0  0  0  0  0  0  0  0  0  0
   23.0417   21.6720  140.8592 O   0  0  0  0  0  0  0  0  0  0  0  0
   22.9159   21.3246  139.5215 C   0  0  0  0  0  0  0  0  0  0  0  0
   22.3481   20.1292  139.2532 N   0  0  0  0  0  0  0  0  0  0  0  0
   22.2051   19.7494  137.9671 C   0  0  0  0  0  0  0  0  0  0  0  0
   21.5845   18.4383  137.6022 C   0  0  0  0  0  0  0  0  0  0  0  0
   22.6292   20.5661  136.9825 N   0  0  0  0  0  0  0  0  0  0  0  0
   23.2058   21.7780  137.2234 C   0  0  0  0  0  0  0  0  0  0  0  0
   23.6361   22.6012  136.1429 N   0  0  0  0  0  0  0  0  0  0  0  0
   25.0144   22.6121  135.7862 C   0  0  0  0  0  0  0  0  0  0  0  0
   25.4163   23.4397  134.9002 O   0  0  0  0  0  0  0  0  0  0  0  0
   25.9756   21.7410  136.3711 N   0  0  0  0  0  0  0  0  0  0  0  0
   27.5926   21.7944  135.7809 S   0  0  1  0  0  6  0  0  0  0  0  0
   28.4465   20.7686  136.4497 O   0  0  0  0  0  0  0  0  0  0  0  0
   27.5946   21.5579  134.3065 O   0  0  0  0  0  0  0  0  0  0  0  0
   28.2029   23.4145  136.1395 C   0  0  0  0  0  0  0  0  0  0  0  0
   27.5419   24.1861  137.0880 C   0  0  0  0  0  0  0  0  0  0  0  0
   28.0171   25.4507  137.3690 C   0  0  0  0  0  0  0  0  0  0  0  0
   29.1432   25.9246  136.6995 C   0  0  0  0  0  0  0  0  0  0  0  0
   29.7944   25.1372  135.7506 C   0  0  0  0  0  0  0  0  0  0  0  0
   29.3153   23.8640  135.4683 C   0  0  0  0  0  0  0  0  0  0  0  0
   23.3341   22.1274  138.5141 N   0  0  0  0  0  0  0  0  0  0  0  0
   30.1575   22.8939  134.2667 Cl  0  0  0  0  0  0  0  0  0  0  0  0
  1  2  1  1
  2  3  1  0
  3  4  2  0
  4  5  1  0
  6  5  1  1
  5  7  2  0
  7  8  1  0
  8  9  1  0
  9 10  1  0
 10 11  2  0
 10 12  1  0
 13 12  1  1
 13 14  2  0
 13 15  2  0
 13 16  1  0
 16 17  2  0
 17 18  1  0
 18 19  2  0
 19 20  1  0
 16 21  1  0
 20 21  2  0
  3 22  1  0
  8 22  2  0
 21 23  1  0
M  END
$$$$
