7S9H_7PP_A_301
     RDKit          3D

 29 31  0  0  0  0  0  0  0  0999 V2000
   34.2726    8.9859  -27.6373 Cl  0  0  0  0  0  0  0  0  0  0  0  0
   33.8814    9.8877  -26.1889 C   0  0  0  0  0  0  0  0  0  0  0  0
   34.8828   10.4984  -25.5147 N   0  0  0  0  0  0  0  0  0  0  0  0
   34.6054   11.2024  -24.3865 C   0  0  0  0  0  0  0  0  0  0  0  0
   35.6542   11.8592  -23.6595 N   0  0  0  0  0  0  0  0  0  0  0  0
   33.3384   11.2857  -23.9504 N   0  0  0  0  0  0  0  0  0  0  0  0
   32.3271   10.6787  -24.6173 C   0  0  0  0  0  0  0  0  0  0  0  0
   32.5614    9.9496  -25.7727 C   0  0  0  0  0  0  0  0  0  0  0  0
   30.9856   10.6250  -24.3706 N   0  0  0  0  0  0  0  0  0  0  0  0
   30.4216   11.3033  -23.2147 C   0  0  0  0  0  0  0  0  0  0  0  0
   29.3391   12.2176  -23.5776 C   0  0  0  0  0  0  0  0  0  0  0  0
   29.5644   13.4436  -24.1667 C   0  0  0  0  0  0  0  0  0  0  0  0
   30.9363   13.9294  -24.4598 C   0  0  0  0  0  0  0  0  0  0  0  0
   28.4974   14.2819  -24.5063 C   0  0  0  0  0  0  0  0  0  0  0  0
   28.7244   15.5217  -25.1004 O   0  0  0  0  0  0  0  0  0  0  0  0
   28.4503   15.7455  -26.4733 C   0  0  0  0  0  0  0  0  0  0  0  0
   27.1954   13.8647  -24.2422 C   0  0  0  0  0  0  0  0  0  0  0  0
   26.0461   14.7610  -24.6015 C   0  0  0  0  0  0  0  0  0  0  0  0
   27.0082   12.6320  -23.6511 C   0  0  0  0  0  0  0  0  0  0  0  0
   28.0669   11.8647  -23.3450 N   0  0  0  0  0  0  0  0  0  0  0  0
   30.3881    9.8947  -25.3243 C   0  0  0  0  0  0  0  0  0  0  0  0
   31.3656    9.4659  -26.2089 C   0  0  0  0  0  0  0  0  0  0  0  0
   31.1864    8.6617  -27.3944 C   0  0  0  0  0  0  0  0  0  0  0  0
   31.0412    7.9689  -28.3789 C   0  0  0  0  0  0  0  0  0  0  0  0
   30.8671    7.1008  -29.5679 C   0  0  0  0  0  0  0  0  0  0  0  0
   31.4606    5.7349  -29.2581 C   0  0  1  0  0  0  0  0  0  0  0  0
   30.7735    5.1208  -28.0576 C   0  0  0  0  0  0  0  0  0  0  0  0
   31.2592    4.8648  -30.4764 C   0  0  0  0  0  0  0  0  0  0  0  0
   32.8240    5.8725  -28.9903 O   0  0  0  0  0  0  0  0  0  0  0  0
  1  2  1  0
  2  3  2  0
  3  4  1  0
  4  5  1  0
  4  6  2  0
  6  7  1  0
  2  8  1  0
  7  8  2  0
  7  9  1  0
 10  9  1  6
 10 11  1  0
 11 12  2  0
 13 12  1  1
 12 14  1  0
 14 15  1  0
 16 15  1  1
 14 17  2  0
 18 17  1  6
 17 19  1  0
 11 20  1  0
 19 20  2  0
  9 21  1  0
  8 22  1  0
 21 22  2  0
 22 23  1  0
 23 24  3  0
 25 24  1  1
 25 26  1  0
 27 26  1  1
 28 26  1  6
 26 29  1  1
M  END
$$$$
