7MYU_ZR7_A_401
     RDKit          3D

 35 39  0  0  0  0  0  0  0  0999 V2000
   74.3309   37.1019   73.0469 O   0  0  0  0  0  0  0  0  0  0  0  0
   58.9031   34.6091   74.5913 C   0  0  0  0  0  0  0  0  0  0  0  0
   61.1216   35.3375   74.6478 C   0  0  0  0  0  0  0  0  0  0  0  0
   66.0464   35.5726   72.1791 C   0  0  0  0  0  0  0  0  0  0  0  0
   62.4482   35.2668   74.1546 N   0  0  0  0  0  0  0  0  0  0  0  0
   63.5808   36.1067   74.5083 C   0  0  0  0  0  0  0  0  0  0  0  0
   63.0029   34.3244   73.1668 C   0  0  0  0  0  0  0  0  0  0  0  0
   64.2808   33.9616   73.9003 C   0  0  2  0  0  0  0  0  0  0  0  0
   64.8294   35.2703   74.2831 C   0  0  2  0  0  0  0  0  0  0  0  0
   70.3699   33.9288   76.7832 O   0  0  0  0  0  0  0  0  0  0  0  0
   70.2829   35.0973   76.3080 C   0  0  0  0  0  0  0  0  0  0  0  0
   71.3497   35.6166   75.4488 C   0  0  0  0  0  0  0  0  0  0  0  0
   71.3074   36.8798   74.9417 N   0  0  0  0  0  0  0  0  0  0  0  0
   72.2629   37.3907   74.1571 C   0  0  0  0  0  0  0  0  0  0  0  0
   73.3423   36.5813   73.8551 C   0  0  0  0  0  0  0  0  0  0  0  0
   75.5034   36.3762   72.7051 C   0  0  0  0  0  0  0  0  0  0  0  0
   73.4448   35.3243   74.3237 N   0  0  0  0  0  0  0  0  0  0  0  0
   72.4576   34.8352   75.1179 C   0  0  0  0  0  0  0  0  0  0  0  0
   69.1827   35.9384   76.5746 N   0  0  0  0  0  0  0  0  0  0  0  0
   67.8234   35.4788   76.5759 C   0  0  0  0  0  0  0  0  0  0  0  0
   67.3822   34.9079   77.7521 C   0  0  0  0  0  0  0  0  0  0  0  0
   66.0875   34.4596   77.7865 C   0  0  0  0  0  0  0  0  0  0  0  0
   65.2390   34.5723   76.6765 C   0  0  0  0  0  0  0  0  0  0  0  0
   63.9925   34.1162   76.8403 F   0  0  0  0  0  0  0  0  0  0  0  0
   67.0002   35.5862   75.5034 C   0  0  0  0  0  0  0  0  0  0  0  0
   65.6705   35.1403   75.4971 C   0  0  0  0  0  0  0  0  0  0  0  0
   65.6263   35.9290   73.2984 N   0  0  0  0  0  0  0  0  0  0  0  0
   66.8495   36.4348   71.3560 N   0  0  0  0  0  0  0  0  0  0  0  0
   65.6181   33.9159   71.5981 S   0  0  0  0  0  0  0  0  0  0  0  0
   65.1565   33.0381   73.1129 C   0  0  0  0  0  0  0  0  0  0  0  0
   60.8565   36.1953   75.6271 N   0  0  0  0  0  0  0  0  0  0  0  0
   59.5997   36.2917   76.1265 C   0  0  0  0  0  0  0  0  0  0  0  0
   58.5818   35.4920   75.6148 C   0  0  0  0  0  0  0  0  0  0  0  0
   57.3085   35.5746   76.1047 F   0  0  0  0  0  0  0  0  0  0  0  0
   60.1801   34.5388   74.1129 N   0  0  0  0  0  0  0  0  0  0  0  0
  3  5  1  0
  6  5  1  6
  7  5  1  6
  8  7  1  6
  6  9  1  0
  8  9  1  0
 10 11  2  0
 11 12  1  0
 12 13  2  0
 13 14  1  0
 14 15  2  0
  1 15  1  0
 16  1  1  6
 15 17  1  0
 12 18  1  0
 17 18  2  0
 11 19  1  0
 19 20  1  0
 20 21  2  0
 21 22  1  0
 22 23  2  0
 23 24  1  0
 20 25  1  0
 23 26  1  0
 25 26  2  0
  9 26  1  1
  9 27  1  0
  4 27  2  0
  4 28  1  0
  4 29  1  0
  8 30  1  0
 30 29  1  6
  3 31  1  0
 31 32  2  0
 32 33  1  0
  2 33  2  0
 33 34  1  0
  3 35  2  0
  2 35  1  0
M  END
$$$$
