7ZXZ_K9R_B_201
     RDKit          3D

 33 36  0  0  0  0  0  0  0  0999 V2000
   49.8540  -21.7180    7.6120 N   0  0  0  0  0  0  0  0  0  0  0  0
   46.1590  -23.8550   13.2400 C   0  0  0  0  0  0  0  0  0  0  0  0
   44.7770  -23.9960   13.8290 C   0  0  0  0  0  0  0  0  0  0  0  0
   43.0050  -22.3960   14.1410 N   0  0  0  0  0  0  0  0  0  0  0  0
   44.2730  -22.7120   14.4360 C   0  0  0  0  0  0  0  0  0  0  0  0
   42.3580  -21.9340   16.8530 O   0  0  0  0  0  0  0  0  0  0  0  0
   48.8960  -21.2740    9.7090 C   0  0  2  0  0  0  0  0  0  0  0  0
   47.5190  -22.6590   11.4280 C   0  0  0  0  0  0  0  0  0  0  0  0
   46.1630  -23.0010   11.9570 C   0  0  0  0  0  0  0  0  0  0  0  0
   47.5020  -21.8370   10.1350 C   0  0  2  0  0  0  0  0  0  0  0  0
   47.4600  -21.1880    7.6460 C   0  0  0  0  0  0  0  0  0  0  0  0
   45.0350  -21.9400   15.0520 O   0  0  0  0  0  0  0  0  0  0  0  0
   48.8460  -20.8650    8.1950 C   0  0  2  0  0  0  0  0  0  0  0  0
   49.9440  -22.2900    9.7030 N   0  0  0  0  0  0  0  0  0  0  0  0
   46.9090  -22.6260    8.6280 S   0  0  0  0  0  0  0  0  0  0  0  0
   50.4660  -22.5080    8.4750 C   0  0  0  0  0  0  0  0  0  0  0  0
   51.3820  -23.2680    8.2250 O   0  0  0  0  0  0  0  0  0  0  0  0
   42.4340  -21.1350   14.5310 C   0  0  2  0  0  0  0  0  0  0  0  0
   43.1820  -19.8890   14.0200 C   0  0  0  0  0  0  0  0  0  0  0  0
   43.5140  -19.0610   15.2300 C   0  0  0  0  0  0  0  0  0  0  0  0
   43.8890  -17.8990   15.2200 O   0  0  0  0  0  0  0  0  0  0  0  0
   43.0760  -19.7040   16.3560 C   0  0  1  0  0  0  0  0  0  0  0  0
   42.5700  -21.0530   16.0420 C   0  0  0  0  0  0  0  0  0  0  0  0
   43.6860  -19.6420   17.7540 C   0  0  0  0  0  0  0  0  0  0  0  0
   42.8850  -19.8490   18.8710 C   0  0  0  0  0  0  0  0  0  0  0  0
   43.3870  -19.6980   20.1610 C   0  0  0  0  0  0  0  0  0  0  0  0
   42.5210  -19.9780   21.3630 C   0  0  0  0  0  0  0  0  0  0  0  0
   40.7420  -19.9870   20.9330 S   0  0  0  0  0  0  0  0  0  0  0  0
   44.7170  -19.3200   20.3160 C   0  0  0  0  0  0  0  0  0  0  0  0
   45.5440  -19.1260   19.2150 C   0  0  0  0  0  0  0  0  0  0  0  0
   45.0190  -19.3030   17.9380 C   0  0  0  0  0  0  0  0  0  0  0  0
   46.9890  -18.7500   19.3960 C   0  0  0  0  0  0  0  0  0  0  0  0
   47.7320  -20.3570   19.7100 S   0  0  0  0  0  0  0  0  0  0  0  0
  2  3  1  0
  3  5  1  0
  4  5  1  0
  8  9  1  0
  2  9  1  0
  7 10  1  0
 10  8  1  1
  5 12  2  0
  1 13  1  0
 13 11  1  6
  7 13  1  0
  7 14  1  6
 11 15  1  0
 10 15  1  0
  1 16  1  0
 14 16  1  0
 16 17  2  0
 18  4  1  6
 18 19  1  0
 19 20  1  0
 20 21  2  0
 20 22  1  0
 18 23  1  0
 22 23  1  0
  6 23  2  0
 22 24  1  1
 24 25  2  0
 25 26  1  0
 26 27  1  0
 27 28  1  0
 26 29  2  0
 29 30  1  0
 24 31  1  0
 30 31  2  0
 30 32  1  0
 32 33  1  0
M  END
$$$$
