7W6F_8I6_A_201
     RDKit          3D

 44 44  0  0  0  0  0  0  0  0999 V2000
    8.1551    7.9706   14.7701 C   0  0  0  0  0  0  0  0  0  0  0  0
    9.1738    7.2926   12.7220 C   0  0  0  0  0  0  0  0  0  0  0  0
    9.2560    7.4633   14.0915 C   0  0  0  0  0  0  0  0  0  0  0  0
   12.2793   15.0606   16.7434 C   0  0  0  0  0  0  0  0  0  0  0  0
   11.3092   14.0013   17.2548 C   0  0  0  0  0  0  0  0  0  0  0  0
   10.8383   13.0351   16.1714 C   0  0  0  0  0  0  0  0  0  0  0  0
   11.3306   11.6378   16.5410 C   0  0  0  0  0  0  0  0  0  0  0  0
   10.3905   10.5198   16.0922 C   0  0  0  0  0  0  0  0  0  0  0  0
   11.1298    9.4123   15.3243 C   0  0  0  0  0  0  0  0  0  0  0  0
   10.6472    8.0094   15.6956 C   0  0  0  0  0  0  0  0  0  0  0  0
    9.5886    8.0086   16.8011 C   0  0  0  0  0  0  0  0  0  0  0  0
    8.1626    8.2088   16.2741 C   0  0  0  0  0  0  0  0  0  0  0  0
    7.0203    8.3145   14.0701 C   0  0  0  0  0  0  0  0  0  0  0  0
    6.9651    8.1384   12.7064 C   0  0  0  0  0  0  0  0  0  0  0  0
    8.0393    7.6274   12.0251 C   0  0  0  0  0  0  0  0  0  0  0  0
   10.5539    7.0470   14.7786 C   0  0  0  0  0  0  0  0  0  0  0  0
    5.8072    8.4780   12.0184 O   0  0  0  0  0  0  0  0  0  0  0  0
   10.2453    6.7860   12.0035 O   0  0  0  0  0  0  0  0  0  0  0  0
   11.5354    7.8344   14.7912 O   0  0  0  0  0  0  0  0  0  0  0  0
   10.6654    5.8992   15.2780 O   0  0  0  0  0  0  0  0  0  0  0  0
   12.5670   15.7005   17.5513 H   0  0  0  0  0  0  0  0  0  0  0  0
   11.8038   15.6411   15.9805 H   0  0  0  0  0  0  0  0  0  0  0  0
   13.1477   14.5836   16.3395 H   0  0  0  0  0  0  0  0  0  0  0  0
   10.4528   14.4953   17.6639 H   0  0  0  0  0  0  0  0  0  0  0  0
   11.8318   13.4228   17.9877 H   0  0  0  0  0  0  0  0  0  0  0  0
   11.2441   13.3247   15.2247 H   0  0  0  0  0  0  0  0  0  0  0  0
    9.7706   13.0469   16.1005 H   0  0  0  0  0  0  0  0  0  0  0  0
   11.4344   11.5860   17.6046 H   0  0  0  0  0  0  0  0  0  0  0  0
   12.2608   11.4885   16.0337 H   0  0  0  0  0  0  0  0  0  0  0  0
    9.6382   10.9369   15.4559 H   0  0  0  0  0  0  0  0  0  0  0  0
    9.9605   10.0810   16.9682 H   0  0  0  0  0  0  0  0  0  0  0  0
   12.1746    9.4834   15.5434 H   0  0  0  0  0  0  0  0  0  0  0  0
   10.9317    9.5556   14.2825 H   0  0  0  0  0  0  0  0  0  0  0  0
   11.4879    7.4379   16.0294 H   0  0  0  0  0  0  0  0  0  0  0  0
   10.1952    7.5873   14.8224 H   0  0  0  0  0  0  0  0  0  0  0  0
    9.8119    8.7998   17.4860 H   0  0  0  0  0  0  0  0  0  0  0  0
    9.6213    7.0480   17.2711 H   0  0  0  0  0  0  0  0  0  0  0  0
    7.5026    7.5146   16.7512 H   0  0  0  0  0  0  0  0  0  0  0  0
    7.8344    9.2052   16.4852 H   0  0  0  0  0  0  0  0  0  0  0  0
    6.2072    8.7061   14.5706 H   0  0  0  0  0  0  0  0  0  0  0  0
    7.9958    7.4963   11.0023 H   0  0  0  0  0  0  0  0  0  0  0  0
    5.0720    8.8273   12.4825 H   0  0  0  0  0  0  0  0  0  0  0  0
   11.0354    6.5468   12.4467 H   0  0  0  0  0  0  0  0  0  0  0  0
    9.9355    5.3116   15.2695 H   0  0  0  0  0  0  0  0  0  0  0  0
  2  3  4  0
  1  3  4  0
  4  5  1  0
  5  6  1  0
  6  7  1  0
  7  8  1  0
  8  9  1  0
  9 10  1  0
 10 11  1  0
  1 12  1  0
 11 12  1  0
  1 13  4  0
 13 14  4  0
  2 15  4  0
 14 15  4  0
  3 16  1  0
 14 17  1  0
  2 18  1  0
 16 19  2  0
 16 20  1  0
  4 21  1  0
  4 22  1  0
  4 23  1  0
  5 24  1  0
  5 25  1  0
  6 26  1  0
  6 27  1  0
  7 28  1  0
  7 29  1  0
  8 30  1  0
  8 31  1  0
  9 32  1  0
  9 33  1  0
 10 34  1  0
 10 35  1  0
 11 36  1  0
 11 37  1  0
 12 38  1  0
 12 39  1  0
 13 40  1  0
 15 41  1  0
 17 42  1  0
 18 43  1  0
 20 44  1  0
M  END
