8AY3_OE3_A_501
     RDKit          3D

 45 47  0  0  0  0  0  0  0  0999 V2000
    1.3519    4.6583   32.1943 C   0  0  0  0  0  0  0  0  0  0  0  0
    3.8563    7.6238   33.8612 N   0  0  0  0  0  0  0  0  0  0  0  0
    2.6130    5.5218   34.0730 C   0  0  0  0  0  0  0  0  0  0  0  0
    3.0230    6.6542   33.3254 C   0  0  0  0  0  0  0  0  0  0  0  0
    2.5393    6.7874   31.9899 C   0  0  0  0  0  0  0  0  0  0  0  0
    1.7100    5.7829   31.4443 C   0  0  0  0  0  0  0  0  0  0  0  0
    2.8906    7.9309   31.2395 C   0  0  0  0  0  0  0  0  0  0  0  0
    4.4233    7.5016   35.2251 C   0  0  1  0  0  0  0  0  0  0  0  0
    0.4338    3.6177   31.6160 C   0  0  2  0  0  0  0  0  0  0  0  0
   -2.8548    3.7618   36.8450 C   0  0  0  0  0  0  0  0  0  0  0  0
    2.4163    8.1426   29.8222 C   0  0  1  0  0  0  0  0  0  0  0  0
   -1.1509    3.2141   35.2053 C   0  0  0  0  0  0  0  0  0  0  0  0
   -2.4825    3.1538   35.6417 C   0  0  0  0  0  0  0  0  0  0  0  0
   -1.9008    4.4341   37.6147 C   0  0  0  0  0  0  0  0  0  0  0  0
   -0.5739    4.5016   37.1806 C   0  0  0  0  0  0  0  0  0  0  0  0
   -0.1989    3.8958   35.9774 C   0  0  0  0  0  0  0  0  0  0  0  0
    4.1644    8.7697   36.0347 C   0  0  2  0  0  0  0  0  0  0  0  0
    1.7904    4.5460   33.5139 C   0  0  0  0  0  0  0  0  0  0  0  0
    3.6866    8.9095   31.8315 C   0  0  0  0  0  0  0  0  0  0  0  0
    4.1546    8.7513   33.1321 C   0  0  0  0  0  0  0  0  0  0  0  0
   -0.8125    3.5862   32.3839 N   0  0  0  0  0  0  0  0  0  0  0  0
   -1.5757    1.2787   33.4299 O   0  0  0  0  0  0  0  0  0  0  0  0
    0.7485    1.9663   33.7844 O   0  0  0  0  0  0  0  0  0  0  0  0
    4.8611    9.6735   33.6263 O   0  0  0  0  0  0  0  0  0  0  0  0
   -0.6726    2.4504   33.6919 S   0  0  2  0  0  6  0  0  0  0  0  0
    2.8957    5.3745   35.1032 H   0  0  0  0  0  0  0  0  0  0  0  0
    1.3269    5.8639   30.4356 H   0  0  0  0  0  0  0  0  0  0  0  0
    4.0297    6.6078   35.7508 H   0  0  0  0  0  0  0  0  0  0  0  0
    5.5200    7.3214   35.1914 H   0  0  0  0  0  0  0  0  0  0  0  0
    0.9416    2.6288   31.6560 H   0  0  0  0  0  0  0  0  0  0  0  0
    0.2236    3.8411   30.5456 H   0  0  0  0  0  0  0  0  0  0  0  0
   -3.8827    3.7125   37.1803 H   0  0  0  0  0  0  0  0  0  0  0  0
    2.8199    9.0810   29.3857 H   0  0  0  0  0  0  0  0  0  0  0  0
    2.7538    7.3007   29.1818 H   0  0  0  0  0  0  0  0  0  0  0  0
    1.3080    8.2072   29.8019 H   0  0  0  0  0  0  0  0  0  0  0  0
   -3.2310    2.6390   35.0533 H   0  0  0  0  0  0  0  0  0  0  0  0
   -2.1901    4.9039   38.5459 H   0  0  0  0  0  0  0  0  0  0  0  0
    0.1639    5.0240   37.7758 H   0  0  0  0  0  0  0  0  0  0  0  0
    0.8312    3.9556   35.6500 H   0  0  0  0  0  0  0  0  0  0  0  0
    3.5106    8.5541   36.9048 H   0  0  0  0  0  0  0  0  0  0  0  0
    3.6725    9.5333   35.3959 H   0  0  0  0  0  0  0  0  0  0  0  0
    5.1276    9.1796   36.4045 H   0  0  0  0  0  0  0  0  0  0  0  0
    1.4891    3.6981   34.1177 H   0  0  0  0  0  0  0  0  0  0  0  0
    3.9506    9.8057   31.2812 H   0  0  0  0  0  0  0  0  0  0  0  0
   -1.5729    3.2366   31.7557 H   0  0  0  0  0  0  0  0  0  0  0  0
  2  4  1  0
  3  4  2  0
  4  5  1  0
  5  6  2  0
  1  6  1  0
  5  7  1  0
  2  8  1  0
  1  9  1  0
  7 11  1  0
 10 13  2  0
 12 13  1  0
 10 14  1  0
 14 15  2  0
 12 16  2  0
 15 16  1  0
  8 17  1  0
  3 18  1  0
  1 18  2  0
  7 19  2  0
  2 20  1  0
 19 20  1  0
  9 21  1  0
 20 24  2  0
 25 21  1  6
 23 25  2  0
 12 25  1  0
 22 25  2  0
  3 26  1  0
  6 27  1  0
  8 28  1  1
  8 29  1  0
  9 30  1  6
  9 31  1  0
 10 32  1  0
 11 33  1  6
 11 34  1  0
 11 35  1  0
 13 36  1  0
 14 37  1  0
 15 38  1  0
 16 39  1  0
 17 40  1  1
 17 41  1  0
 17 42  1  0
 18 43  1  0
 19 44  1  0
 21 45  1  0
M  END
