7BJJ_TVW_A_301
     RDKit          3D

 10 11  0  0  0  0  0  0  0  0999 V2000
    6.5600   -4.3352   11.5417 C   0  0  0  0  0  0  0  0  0  0  0  0
    6.6717   -4.8540   12.7796 N   0  0  0  0  0  0  0  0  0  0  0  0
    6.9635   -4.4746    9.2594 C   0  0  0  0  0  0  0  0  0  0  0  0
    7.0696   -4.9929   10.4985 N   0  0  0  0  0  0  0  0  0  0  0  0
    5.8025   -2.6435   10.0267 C   0  0  0  0  0  0  0  0  0  0  0  0
    6.3567   -3.3110    9.0047 N   0  0  0  0  0  0  0  0  0  0  0  0
    5.8604   -3.1384   11.3127 C   0  0  0  0  0  0  0  0  0  0  0  0
    4.8110   -1.1933   11.4030 N   0  0  0  0  0  0  0  0  0  0  0  0
    5.2491   -2.1858   12.1609 C   0  0  0  0  0  0  0  0  0  0  0  0
    5.1676   -1.4582   10.0953 N   0  0  0  0  0  0  0  0  0  0  0  0
  1  2  1  0
  1  4  2  0
  3  4  1  0
  5  6  1  0
  3  6  2  0
  1  7  1  0
  5  7  1  0
  8  9  1  0
  7  9  2  0
  8 10  1  0
  5 10  2  0
M  END
