7D9L_GSF_A_305
     RDKit          3D

 22 21  0  0  0  0  0  0  0  0999 V2000
    7.6454   22.6703   16.9715 C   0  0  0  0  0  0  0  0  0  0  0  0
    8.2310   21.8435   15.8554 C   0  0  0  0  0  0  0  0  0  0  0  0
    9.0433   22.6955   14.9188 C   0  0  0  0  0  0  0  0  0  0  0  0
    9.2040   23.9092   15.2198 O   0  0  0  0  0  0  0  0  0  0  0  0
    7.8392   20.7135   18.4682 C   0  0  0  0  0  0  0  0  0  0  0  0
    8.6368   20.9678   19.5918 O   0  0  0  0  0  0  0  0  0  0  0  0
    7.8649   19.6069   17.8644 O   0  0  0  0  0  0  0  0  0  0  0  0
    6.2960   22.4376   19.0267 N   0  0  0  0  0  0  0  0  0  0  0  0
    6.9160   21.7458   17.9292 C   0  0  1  0  0  0  0  0  0  0  0  0
    9.5913   22.1061   13.7457 N   0  0  0  0  0  0  0  0  0  0  0  0
   10.2186   22.9778   12.7854 C   0  0  1  0  0  0  0  0  0  0  0  0
   11.5117   22.3680   12.3111 C   0  0  0  0  0  0  0  0  0  0  0  0
   12.7112   22.3020   13.6267 S   0  0  0  0  0  4  0  0  0  0  0  0
   14.0134   21.6938   13.1871 O   0  0  0  0  0  0  0  0  0  0  0  0
   12.9166   23.7302   14.4723 O   0  0  0  0  0  0  0  0  0  0  0  0
    9.3037   23.2705   11.6362 C   0  0  0  0  0  0  0  0  0  0  0  0
    8.6578   22.3134   11.1429 O   0  0  0  0  0  0  0  0  0  0  0  0
    9.2223   24.6073   11.1755 N   0  0  0  0  0  0  0  0  0  0  0  0
    8.2980   24.8930   10.0837 C   0  0  0  0  0  0  0  0  0  0  0  0
    8.9912   25.5340    8.9391 C   0  0  0  0  0  0  0  0  0  0  0  0
    8.4137   25.5911    7.6700 O   0  0  0  0  0  0  0  0  0  0  0  0
   10.1394   26.0639    9.0432 O   0  0  0  0  0  0  0  0  0  0  0  0
  1  2  1  1
  2  3  1  6
  3  4  2  0
  5  6  1  0
  5  7  2  0
  1  9  1  0
  5  9  1  0
  9  8  1  1
  3 10  1  0
 11 10  1  1
 12 11  1  1
 12 13  1  0
 13 14  2  0
 13 15  1  6
 11 16  1  0
 16 17  2  0
 16 18  1  0
 19 18  1  1
 19 20  1  0
 20 21  1  0
 20 22  2  0
M  END
$$$$
