8D39_QDB_A_501
     RDKit          3D

 17 18  0  0  0  0  0  0  0  0999 V2000
    2.3480   -0.2580   23.7830 C   0  0  0  0  0  0  0  0  0  0  0  0
    2.5260   -1.4260   23.0530 C   0  0  0  0  0  0  0  0  0  0  0  0
    2.9130   -1.3820   21.7160 C   0  0  0  0  0  0  0  0  0  0  0  0
    3.1330   -0.1750   21.0630 C   0  0  0  0  0  0  0  0  0  0  0  0
    2.9260    0.9850   21.8250 C   0  0  0  0  0  0  0  0  0  0  0  0
    2.5430    0.9460   23.1540 C   0  0  0  0  0  0  0  0  0  0  0  0
    3.5520   -0.0710   19.6120 C   0  0  0  0  0  0  0  0  0  0  0  0
    3.8140    1.2200   18.9720 C   0  0  0  0  0  0  0  0  0  0  0  0
    4.7560    2.1160   19.4870 C   0  0  0  0  0  0  0  0  0  0  0  0
    4.9610    3.3530   18.9290 C   0  0  0  0  0  0  0  0  0  0  0  0
    4.2030    3.7690   17.8440 C   0  0  0  0  0  0  0  0  0  0  0  0
    3.2580    2.8950   17.3380 C   0  0  0  0  0  0  0  0  0  0  0  0
    3.0640    1.6570   17.8950 C   0  0  0  0  0  0  0  0  0  0  0  0
    4.3600    5.1470   17.2450 C   0  0  0  0  0  0  0  0  0  0  0  0
    3.5820   -1.1120   18.9880 O   0  0  0  0  0  0  0  0  0  0  0  0
    3.4090    5.5070   16.5370 O   0  0  0  0  0  0  0  0  0  0  0  0
    5.3480    5.8300   17.5840 O   0  0  0  0  0  0  0  0  0  0  0  0
  1  2  2  0
  2  3  1  0
  3  4  2  0
  4  5  1  0
  5  6  2  0
  1  6  1  0
  4  7  1  0
  7  8  1  0
  8  9  2  0
  9 10  1  0
 10 11  2  0
 11 12  1  0
 12 13  2  0
  8 13  1  0
 11 14  1  0
  7 15  2  0
 14 16  2  0
 14 17  1  0
M  END
$$$$
