8D39_QDB_A_501
     RDKit          3D

 27 28  0  0  0  0  0  0  0  0999 V2000
   -2.7065    1.4981    2.9682 C   0  0  0  0  0  0  0  0  0  0  0  0
   -2.8142    1.1613    1.6170 C   0  0  0  0  0  0  0  0  0  0  0  0
   -1.8329    0.3712    1.0104 C   0  0  0  0  0  0  0  0  0  0  0  0
   -0.7249   -0.0816    1.7514 C   0  0  0  0  0  0  0  0  0  0  0  0
   -0.6360    0.2499    3.1155 C   0  0  0  0  0  0  0  0  0  0  0  0
   -1.6200    1.0405    3.7173 C   0  0  0  0  0  0  0  0  0  0  0  0
    0.3143   -0.9361    1.1270 C   0  0  0  0  0  0  0  0  0  0  0  0
    0.7049   -0.7990   -0.2974 C   0  0  0  0  0  0  0  0  0  0  0  0
    0.7010    0.4550   -0.9319 C   0  0  0  0  0  0  0  0  0  0  0  0
    1.0877    0.5747   -2.2697 C   0  0  0  0  0  0  0  0  0  0  0  0
    1.4969   -0.5557   -2.9980 C   0  0  0  0  0  0  0  0  0  0  0  0
    1.5169   -1.8063   -2.3584 C   0  0  0  0  0  0  0  0  0  0  0  0
    1.1304   -1.9253   -1.0203 C   0  0  0  0  0  0  0  0  0  0  0  0
    1.9065   -0.4341   -4.4145 C   0  0  0  0  0  0  0  0  0  0  0  0
    0.8867   -1.8112    1.8328 O   0  0  0  0  0  0  0  0  0  0  0  0
    1.8907    0.6877   -4.9900 O   0  0  0  0  0  0  0  0  0  0  0  0
    2.3136   -1.5595   -5.1266 O   0  0  0  0  0  0  0  0  0  0  0  0
   -3.4677    2.1089    3.4361 H   0  0  0  0  0  0  0  0  0  0  0  0
   -3.6621    1.5074    1.0400 H   0  0  0  0  0  0  0  0  0  0  0  0
   -1.9485    0.1024   -0.0320 H   0  0  0  0  0  0  0  0  0  0  0  0
    0.2002   -0.0933    3.7121 H   0  0  0  0  0  0  0  0  0  0  0  0
   -1.5401    1.2979    4.7656 H   0  0  0  0  0  0  0  0  0  0  0  0
    0.4132    1.3469   -0.3897 H   0  0  0  0  0  0  0  0  0  0  0  0
    1.0715    1.5541   -2.7313 H   0  0  0  0  0  0  0  0  0  0  0  0
    1.8317   -2.6951   -2.8908 H   0  0  0  0  0  0  0  0  0  0  0  0
    1.1527   -2.9020   -0.5525 H   0  0  0  0  0  0  0  0  0  0  0  0
    2.5959   -1.4873   -6.0969 H   0  0  0  0  0  0  0  0  0  0  0  0
  1  2  2  0
  2  3  1  0
  3  4  2  0
  4  5  1  0
  5  6  2  0
  1  6  1  0
  4  7  1  0
  7  8  1  0
  8  9  2  0
  9 10  1  0
 10 11  2  0
 11 12  1  0
 12 13  2  0
  8 13  1  0
 11 14  1  0
  7 15  2  0
 14 16  2  0
 14 17  1  0
  1 18  1  0
  2 19  1  0
  3 20  1  0
  5 21  1  0
  6 22  1  0
  9 23  1  0
 10 24  1  0
 12 25  1  0
 13 26  1  0
 17 27  1  0
M  END
