7NSW_HC4_AAA_402
     RDKit          3D

 12 12  0  0  0  0  0  0  0  0999 V2000
   69.5761   20.3521   40.3546 C   0  0  0  0  0  0  0  0  0  0  0  0
   69.1124   19.6621   39.4116 O   0  0  0  0  0  0  0  0  0  0  0  0
   70.9632   20.5598   40.3312 O   0  0  0  0  0  0  0  0  0  0  0  0
   68.7570   20.9167   41.4212 C   0  0  0  0  0  0  0  0  0  0  0  0
   67.6128   20.4057   41.7825 C   0  0  0  0  0  0  0  0  0  0  0  0
   66.7547   20.9386   42.8324 C   0  0  0  0  0  0  0  0  0  0  0  0
   67.1512   21.9740   43.6501 C   0  0  0  0  0  0  0  0  0  0  0  0
   66.3302   22.4759   44.6465 C   0  0  0  0  0  0  0  0  0  0  0  0
   65.0737   21.9232   44.8288 C   0  0  0  0  0  0  0  0  0  0  0  0
   64.6460   20.8911   44.0328 C   0  0  0  0  0  0  0  0  0  0  0  0
   65.4964   20.4196   43.0499 C   0  0  0  0  0  0  0  0  0  0  0  0
   64.2827   22.4694   45.8524 O   0  0  0  0  0  0  0  0  0  0  0  0
  1  2  2  0
  1  3  1  0
  1  4  1  0
  4  5  2  0
  5  6  1  0
  6  7  2  0
  7  8  1  0
  8  9  2  0
  9 10  1  0
  6 11  1  0
 10 11  2  0
  9 12  1  0
M  END
$$$$
