7D8Q_GZF_A_201
     RDKit          3D

 43 45  0  0  0  0  0  0  0  0999 V2000
    2.4763   -3.0101    0.1254 O   0  0  0  0  0  0  0  0  0  0  0  0
    1.1402   -2.9448    0.5621 C   0  0  1  0  0  0  0  0  0  0  0  0
    0.7104   -1.4949    0.7927 C   0  0  1  0  0  0  0  0  0  0  0  0
    1.8242   -0.6034    1.3521 C   0  0  0  0  0  0  0  0  0  0  0  0
    1.2846    0.6592    1.6617 O   0  0  0  0  0  0  0  0  0  0  0  0
    2.5078    1.6187    2.3662 P   0  0  2  0  0  5  0  0  0  0  0  0
    3.9276    1.5749    1.4376 O   0  0  0  0  0  0  0  0  0  0  0  0
    2.8058    1.1009    3.7561 O   0  0  0  0  0  0  0  0  0  0  0  0
    1.9455    3.2192    2.5037 O   0  0  0  0  0  0  0  0  0  0  0  0
    1.8537    3.8887    0.9379 P   0  0  0  0  0  5  0  0  0  0  0  0
    0.6530    5.0828    0.9502 O   0  0  0  0  0  0  0  0  0  0  0  0
    1.4557    2.7252   -0.2316 O   0  0  0  0  0  0  0  0  0  0  0  0
    3.3676    4.6248    0.5359 S   0  0  0  0  0  0  0  0  0  0  0  0
    0.2234   -0.9618   -0.4219 O   0  0  0  0  0  0  0  0  0  0  0  0
   -0.0444   -2.0441   -1.2902 C   0  0  2  0  0  0  0  0  0  0  0  0
   -1.4185   -1.9653   -1.7891 N   0  0  0  0  0  0  0  0  0  0  0  0
   -1.8655   -2.3157   -3.0229 C   0  0  0  0  0  0  0  0  0  0  0  0
   -3.2173   -2.2133   -3.1581 N   0  0  0  0  0  0  0  0  0  0  0  0
   -3.6043   -1.7892   -1.9407 C   0  0  0  0  0  0  0  0  0  0  0  0
   -4.8801   -1.5284   -1.4642 C   0  0  0  0  0  0  0  0  0  0  0  0
   -5.9975   -1.6669   -2.2803 O   0  0  0  0  0  0  0  0  0  0  0  0
   -5.0042   -1.1326   -0.1617 N   0  0  0  0  0  0  0  0  0  0  0  0
   -3.9064   -1.0004    0.6530 C   0  0  0  0  0  0  0  0  0  0  0  0
   -4.0724   -0.5886    2.0075 N   0  0  0  0  0  0  0  0  0  0  0  0
   -2.6535   -1.2641    0.1706 N   0  0  0  0  0  0  0  0  0  0  0  0
   -2.5371   -1.6487   -1.1235 C   0  0  0  0  0  0  0  0  0  0  0  0
    0.1866   -3.3549   -0.5340 C   0  0  1  0  0  0  0  0  0  0  0  0
    0.6766   -4.3949   -1.3486 O   0  0  0  0  0  0  0  0  0  0  0  0
    2.7922   -3.9325    0.3123 H   0  0  0  0  0  0  0  0  0  0  0  0
    0.9913   -3.5523    1.4861 H   0  0  0  0  0  0  0  0  0  0  0  0
   -0.1267   -1.4959    1.5280 H   0  0  0  0  0  0  0  0  0  0  0  0
    2.6197   -0.5028    0.5799 H   0  0  0  0  0  0  0  0  0  0  0  0
    2.2386   -1.0907    2.2647 H   0  0  0  0  0  0  0  0  0  0  0  0
    4.4283    0.7846    1.7628 H   0  0  0  0  0  0  0  0  0  0  0  0
    0.5415    5.3498    0.0028 H   0  0  0  0  0  0  0  0  0  0  0  0
    1.3048    3.2358   -1.0668 H   0  0  0  0  0  0  0  0  0  0  0  0
    0.6587   -1.9608   -2.1485 H   0  0  0  0  0  0  0  0  0  0  0  0
   -1.2164   -2.6559   -3.8195 H   0  0  0  0  0  0  0  0  0  0  0  0
   -6.9262   -1.4755   -1.9242 H   0  0  0  0  0  0  0  0  0  0  0  0
   -5.0243   -0.3855    2.3853 H   0  0  0  0  0  0  0  0  0  0  0  0
   -3.2432   -0.4864    2.6337 H   0  0  0  0  0  0  0  0  0  0  0  0
   -0.7637   -3.6946   -0.0634 H   0  0  0  0  0  0  0  0  0  0  0  0
    1.4442   -4.0522   -1.8758 H   0  0  0  0  0  0  0  0  0  0  0  0
  2  1  1  0
  2  3  1  0
  3  4  1  0
  4  5  1  0
  6  5  1  6
  6  7  1  0
  6  8  2  0
  6  9  1  0
  9 10  1  0
 10 11  1  0
 10 12  1  0
 10 13  2  0
  3 14  1  0
 14 15  1  0
 15 16  1  0
 16 17  1  0
 17 18  2  0
 18 19  1  0
 19 20  2  0
 20 21  1  0
 20 22  1  0
 22 23  2  0
 23 24  1  0
 23 25  1  0
 25 26  2  0
 16 26  1  0
 19 26  1  0
  2 27  1  0
 15 27  1  0
 27 28  1  0
  1 29  1  0
  2 30  1  1
  3 31  1  1
  4 32  1  0
  4 33  1  0
  7 34  1  0
 11 35  1  0
 12 36  1  0
 15 37  1  6
 17 38  1  0
 21 39  1  0
 24 40  1  0
 24 41  1  0
 27 42  1  1
 28 43  1  0
M  END
