5S8I_2LY_A_1501
     RDKit          3D

 22 23  0  0  0  0  0  0  0  0999 V2000
   -2.3910    0.1934   -2.4204 C   0  0  0  0  0  0  0  0  0  0  0  0
   -3.2237    0.6794   -1.3269 N   0  0  0  0  0  0  0  0  0  0  0  0
   -4.5890    1.0667   -1.5388 C   0  0  0  0  0  0  0  0  0  0  0  0
   -5.1244    1.2973   -2.8938 C   0  0  0  0  0  0  0  0  0  0  0  0
   -4.5025    1.0774   -4.1203 C   0  0  0  0  0  0  0  0  0  0  0  0
   -5.2808    1.4267   -5.2213 C   0  0  0  0  0  0  0  0  0  0  0  0
   -6.5428    1.9070   -4.9114 C   0  0  0  0  0  0  0  0  0  0  0  0
   -6.6575    1.9231   -3.2293 S   0  0  0  0  0  0  0  0  0  0  0  0
   -4.7701    1.2990   -6.5131 O   0  0  0  0  0  0  0  0  0  0  0  0
   -3.3680    1.0767   -6.7100 C   0  0  0  0  0  0  0  0  0  0  0  0
   -2.7967    0.1499   -5.6158 C   0  0  0  0  0  0  0  0  0  0  0  0
   -3.2134    0.5786   -4.3134 O   0  0  0  0  0  0  0  0  0  0  0  0
   -5.3612    1.1960   -0.5504 O   0  0  0  0  0  0  0  0  0  0  0  0
   -1.3707   -0.0347   -2.0460 H   0  0  0  0  0  0  0  0  0  0  0  0
   -2.8324   -0.7323   -2.8459 H   0  0  0  0  0  0  0  0  0  0  0  0
   -2.3169    0.9684   -3.2122 H   0  0  0  0  0  0  0  0  0  0  0  0
   -2.7839    0.7882   -0.3876 H   0  0  0  0  0  0  0  0  0  0  0  0
   -7.2962    2.2354   -5.6145 H   0  0  0  0  0  0  0  0  0  0  0  0
   -2.8408    2.0537   -6.6660 H   0  0  0  0  0  0  0  0  0  0  0  0
   -3.2007    0.6317   -7.7132 H   0  0  0  0  0  0  0  0  0  0  0  0
   -3.1671   -0.8833   -5.7883 H   0  0  0  0  0  0  0  0  0  0  0  0
   -1.6877    0.1390   -5.6647 H   0  0  0  0  0  0  0  0  0  0  0  0
  1  2  1  0
  2  3  1  0
  3  4  1  0
  4  5  4  0
  5  6  4  0
  6  7  4  0
  7  8  4  0
  4  8  4  0
  6  9  1  0
  9 10  1  0
 10 11  1  0
  5 12  1  0
 11 12  1  0
  3 13  2  0
  1 14  1  0
  1 15  1  0
  1 16  1  0
  2 17  1  0
  7 18  1  0
 10 19  1  0
 10 20  1  0
 11 21  1  0
 11 22  1  0
M  END
