
     RDKit          3D

 31 34  0  0  0  0  0  0  0  0999 V2000
  -18.7207  -13.0730  -11.1650 C   0  0  0  0  0  0  0  0  0  0  0  0
  -18.2719  -12.9171  -12.4794 C   0  0  0  0  0  0  0  0  0  0  0  0
  -18.9958  -13.4532  -13.5529 C   0  0  0  0  0  0  0  0  0  0  0  0
  -18.5304  -13.2869  -14.9893 C   0  0  0  0  0  0  0  0  0  0  0  0
  -19.5976  -13.7524  -16.0009 C   0  0  0  0  0  0  0  0  0  0  0  0
  -18.9874  -14.3695  -17.2622 C   0  0  0  0  0  0  0  0  0  0  0  0
  -16.7178  -13.7049  -16.6948 C   0  0  0  0  0  0  0  0  0  0  0  0
  -17.1852  -13.9733  -15.2613 C   0  0  0  0  0  0  0  0  0  0  0  0
  -20.1696  -14.1668  -13.2768 C   0  0  0  0  0  0  0  0  0  0  0  0
  -21.2248  -14.2344   -6.8026 C   0  0  0  0  0  0  0  0  0  0  0  0
  -20.7450  -15.3603   -4.7355 F   0  0  0  0  0  0  0  0  0  0  0  0
  -21.5234  -14.4203   -5.3285 C   0  0  0  0  0  0  0  0  0  0  0  0
  -22.8260  -14.7142   -5.0715 F   0  0  0  0  0  0  0  0  0  0  0  0
  -21.2877  -13.2746   -4.6158 F   0  0  0  0  0  0  0  0  0  0  0  0
  -21.8474  -13.2686   -7.6256 C   0  0  0  0  0  0  0  0  0  0  0  0
  -23.3092  -12.4012   -7.0612 S   0  0  0  0  0  6  0  0  0  0  0  0
  -24.2179  -13.3305   -6.4382 O   0  0  0  0  0  0  0  0  0  0  0  0
  -22.6975  -11.4441   -5.8407 N   0  0  0  0  0  0  0  0  0  0  0  0
  -23.7773  -11.5460   -8.1262 O   0  0  0  0  0  0  0  0  0  0  0  0
  -21.4059  -13.0528   -8.9615 C   0  0  0  0  0  0  0  0  0  0  0  0
  -21.8879  -11.9129   -9.7480 C   0  0  0  0  0  0  0  0  0  0  0  0
  -22.5974  -11.9902  -10.9170 N   0  0  0  0  0  0  0  0  0  0  0  0
  -22.8497  -10.7604  -11.3866 N   0  0  0  0  0  0  0  0  0  0  0  0
  -22.3111   -9.9348  -10.5011 N   0  0  0  0  0  0  0  0  0  0  0  0
  -21.7101  -10.6315   -9.4816 N   0  0  0  0  0  0  0  0  0  0  0  0
  -20.2384  -15.0568   -7.3743 C   0  0  0  0  0  0  0  0  0  0  0  0
  -19.8523  -14.9058   -8.7036 C   0  0  0  0  0  0  0  0  0  0  0  0
  -20.4062  -13.9000   -9.5088 C   0  0  0  0  0  0  0  0  0  0  0  0
  -19.9076  -13.7655  -10.8889 C   0  0  0  0  0  0  0  0  0  0  0  0
  -20.6195  -14.3217  -11.9620 C   0  0  0  0  0  0  0  0  0  0  0  0
  -17.8000  -13.6358  -17.6806 N   0  0  0  0  0  0  0  0  0  0  0  0
  1  2  4  0
  2  3  4  0
  3  4  1  0
  4  5  1  0
  5  6  1  0
  7  8  1  0
  4  8  1  0
  3  9  4  0
 10 12  1  0
 11 12  1  0
 12 13  1  0
 12 14  1  0
 10 15  4  0
 15 16  1  0
 16 17  2  0
 16 18  1  0
 16 19  2  0
 15 20  4  0
 20 21  1  0
 21 22  4  0
 22 23  4  0
 23 24  4  0
 24 25  4  0
 21 25  4  0
 10 26  4  0
 26 27  4  0
 20 28  4  0
 27 28  4  0
  1 29  4  0
 28 29  1  0
  9 30  4  0
 29 30  4  0
  7 31  1  0
  6 31  1  0
M  END
