6YJA_2BA_B_201
     RDKit          3D

 68 74  0  0  0  0  0  0  0  0999 V2000
    3.6314   -9.8949   17.1447 P   0  0  2  0  0  5  0  0  0  0  0  0
    4.7349  -10.8143   17.6249 O   0  0  0  0  0  0  0  0  0  0  0  0
    3.8795   -8.3546   17.8034 O   0  0  0  0  0  0  0  0  0  0  0  0
    2.0696  -10.4321   17.5772 O   0  0  0  0  0  0  0  0  0  0  0  0
    2.1104  -11.5281   18.4598 C   0  0  1  0  0  0  0  0  0  0  0  0
    0.8310  -12.3558   18.2769 C   0  0  1  0  0  0  0  0  0  0  0  0
    0.7747  -13.3545   19.2720 O   0  0  0  0  0  0  0  0  0  0  0  0
   -0.4513  -11.5005   18.3198 C   0  0  1  0  0  0  0  0  0  0  0  0
   -1.2000  -11.7414   17.1377 O   0  0  0  0  0  0  0  0  0  0  0  0
   -1.1795  -12.0410   19.5318 C   0  0  1  0  0  0  0  0  0  0  0  0
   -2.5642  -12.1547   19.3185 O   0  0  0  0  0  0  0  0  0  0  0  0
   -0.5517  -13.4088   19.7331 C   0  0  2  0  0  0  0  0  0  0  0  0
   -0.5761  -13.7913   21.1466 N   0  0  0  0  0  0  0  0  0  0  0  0
   -1.5421  -13.5104   22.0592 C   0  0  0  0  0  0  0  0  0  0  0  0
   -1.2361  -13.9331   23.3174 N   0  0  0  0  0  0  0  0  0  0  0  0
   -0.0202  -14.4895   23.1566 C   0  0  0  0  0  0  0  0  0  0  0  0
    0.8148  -15.0813   24.0991 C   0  0  0  0  0  0  0  0  0  0  0  0
    0.4363  -15.2023   25.4705 N   0  0  0  0  0  0  0  0  0  0  0  0
    2.0267  -15.5459   23.6686 N   0  0  0  0  0  0  0  0  0  0  0  0
    2.4108  -15.4304   22.3561 C   0  0  0  0  0  0  0  0  0  0  0  0
    1.5807  -14.8479   21.4386 N   0  0  0  0  0  0  0  0  0  0  0  0
    0.3770  -14.3974   21.8672 C   0  0  0  0  0  0  0  0  0  0  0  0
   -1.5421  -10.2765   16.3235 P   0  0  2  0  0  5  0  0  0  0  0  0
   -2.2298   -9.3177   17.2690 O   0  0  0  0  0  0  0  0  0  0  0  0
   -2.5912  -10.6030   15.0369 O   0  0  0  0  0  0  0  0  0  0  0  0
   -0.1228   -9.5414   15.7217 O   0  0  0  0  0  0  0  0  0  0  0  0
    0.5364  -10.4469   14.8637 C   0  0  1  0  0  0  0  0  0  0  0  0
    1.6622   -9.7403   14.0897 C   0  0  1  0  0  0  0  0  0  0  0  0
    1.1060   -8.8339   13.1662 O   0  0  0  0  0  0  0  0  0  0  0  0
    2.6434   -8.9677   14.9716 C   0  0  1  0  0  0  0  0  0  0  0  0
    3.6912   -9.8019   15.4415 O   0  0  0  0  0  0  0  0  0  0  0  0
    3.1717   -7.9254   14.0074 C   0  0  1  0  0  0  0  0  0  0  0  0
    4.3934   -8.3078   13.4146 O   0  0  0  0  0  0  0  0  0  0  0  0
    2.0568   -7.8096   12.9560 C   0  0  2  0  0  0  0  0  0  0  0  0
    1.3997   -6.5037   13.0459 N   0  0  0  0  0  0  0  0  0  0  0  0
    0.1546   -6.1619   12.6196 C   0  0  0  0  0  0  0  0  0  0  0  0
   -0.1910   -4.8815   12.9318 N   0  0  0  0  0  0  0  0  0  0  0  0
    0.8953   -4.4339   13.5901 C   0  0  0  0  0  0  0  0  0  0  0  0
    1.1234   -3.1966   14.1816 C   0  0  0  0  0  0  0  0  0  0  0  0
    0.1623   -2.1421   14.1206 N   0  0  0  0  0  0  0  0  0  0  0  0
    2.3141   -3.0147   14.8292 N   0  0  0  0  0  0  0  0  0  0  0  0
    3.2538   -4.0140   14.8951 C   0  0  0  0  0  0  0  0  0  0  0  0
    3.0184   -5.2269   14.3102 N   0  0  0  0  0  0  0  0  0  0  0  0
    1.8381   -5.4016   13.6664 C   0  0  0  0  0  0  0  0  0  0  0  0
    4.2822   -7.8284   17.0677 H   0  0  0  0  0  0  0  0  0  0  0  0
    2.9572  -12.2226   18.2708 H   0  0  0  0  0  0  0  0  0  0  0  0
    2.1726  -11.1559   19.5049 H   0  0  0  0  0  0  0  0  0  0  0  0
    0.9062  -12.8666   17.2902 H   0  0  0  0  0  0  0  0  0  0  0  0
   -0.2231  -10.4237   18.5115 H   0  0  0  0  0  0  0  0  0  0  0  0
   -0.9656  -11.3938   20.4171 H   0  0  0  0  0  0  0  0  0  0  0  0
   -2.7287  -11.8661   18.3838 H   0  0  0  0  0  0  0  0  0  0  0  0
   -1.0977  -14.1731   19.1330 H   0  0  0  0  0  0  0  0  0  0  0  0
   -2.4606  -12.9913   21.8176 H   0  0  0  0  0  0  0  0  0  0  0  0
    0.8022  -14.5377   26.1909 H   0  0  0  0  0  0  0  0  0  0  0  0
   -0.2086  -15.9681   25.7726 H   0  0  0  0  0  0  0  0  0  0  0  0
    3.3778  -15.8013   22.0455 H   0  0  0  0  0  0  0  0  0  0  0  0
   -3.4932  -10.6307   15.4519 H   0  0  0  0  0  0  0  0  0  0  0  0
    0.9747  -11.2822   15.4468 H   0  0  0  0  0  0  0  0  0  0  0  0
   -0.1629  -10.8768   14.1105 H   0  0  0  0  0  0  0  0  0  0  0  0
    2.2157  -10.5190   13.5155 H   0  0  0  0  0  0  0  0  0  0  0  0
    2.0840   -8.4151   15.7652 H   0  0  0  0  0  0  0  0  0  0  0  0
    3.3349   -6.9637   14.5439 H   0  0  0  0  0  0  0  0  0  0  0  0
    4.5882   -9.2456   13.6822 H   0  0  0  0  0  0  0  0  0  0  0  0
    2.4738   -7.9319   11.9314 H   0  0  0  0  0  0  0  0  0  0  0  0
   -0.5048   -6.8385   12.0900 H   0  0  0  0  0  0  0  0  0  0  0  0
   -0.0597   -1.5637   14.9630 H   0  0  0  0  0  0  0  0  0  0  0  0
   -0.3562   -1.9558   13.2327 H   0  0  0  0  0  0  0  0  0  0  0  0
    4.1869   -3.8399   15.4138 H   0  0  0  0  0  0  0  0  0  0  0  0
  1  2  2  0
  1  3  1  1
  1  4  1  0
  4  5  1  0
  6  5  1  0
  6  7  1  0
  6  8  1  0
  8  9  1  0
  8 10  1  0
 10 11  1  0
  7 12  1  0
 10 12  1  0
 12 13  1  0
 13 14  1  0
 14 15  2  0
 15 16  1  0
 16 17  2  0
 17 18  1  0
 17 19  1  0
 19 20  2  0
 20 21  1  0
 13 22  1  0
 16 22  1  0
 21 22  2  0
  9 23  1  0
 23 24  2  0
 23 25  1  6
 23 26  1  0
 26 27  1  0
 28 27  1  0
 28 29  1  0
 28 30  1  0
  1 31  1  0
 30 31  1  0
 30 32  1  0
 32 33  1  0
 29 34  1  0
 32 34  1  0
 34 35  1  0
 35 36  1  0
 36 37  2  0
 37 38  1  0
 38 39  2  0
 39 40  1  0
 39 41  1  0
 41 42  2  0
 42 43  1  0
 35 44  1  0
 38 44  1  0
 43 44  2  0
  3 45  1  0
  5 46  1  6
  5 47  1  0
  6 48  1  6
  8 49  1  1
 10 50  1  1
 11 51  1  0
 12 52  1  6
 14 53  1  0
 18 54  1  0
 18 55  1  0
 20 56  1  0
 25 57  1  0
 27 58  1  1
 27 59  1  0
 28 60  1  6
 30 61  1  1
 32 62  1  1
 33 63  1  0
 34 64  1  6
 36 65  1  0
 40 66  1  0
 40 67  1  0
 42 68  1  0
M  END
