8FAV_4Y5_B_602
     RDKit          3D

 43 46  0  0  0  0  0  0  0  0999 V2000
   -3.7750  -24.6600  -14.2734 C   0  0  0  0  0  0  0  0  0  0  0  0
   -3.0721  -23.4423  -14.2905 C   0  0  0  0  0  0  0  0  0  0  0  0
   -1.6991  -23.4826  -14.5590 C   0  0  0  0  0  0  0  0  0  0  0  0
   -1.0450  -24.6712  -14.7678 C   0  0  0  0  0  0  0  0  0  0  0  0
   -1.7258  -25.8926  -14.7845 C   0  0  0  0  0  0  0  0  0  0  0  0
    0.2798  -24.3213  -14.9819 C   0  0  0  0  0  0  0  0  0  0  0  0
   -1.0535  -21.0552  -14.5327 C   0  0  0  0  0  0  0  0  0  0  0  0
    2.2591  -18.3615  -14.8858 C   0  0  0  0  0  0  0  0  0  0  0  0
    1.6691  -18.9051  -16.0239 C   0  0  0  0  0  0  0  0  0  0  0  0
    2.0283  -24.0021  -17.1973 F   0  0  0  0  0  0  0  0  0  0  0  0
    2.2826  -24.9988  -16.3113 C   0  0  0  0  0  0  0  0  0  0  0  0
    3.3921  -25.8255  -16.5157 C   0  0  0  0  0  0  0  0  0  0  0  0
    3.6803  -26.8692  -15.6201 C   0  0  0  0  0  0  0  0  0  0  0  0
    4.8556  -27.7404  -15.8412 C   0  0  0  0  0  0  0  0  0  0  0  0
    5.3295  -27.9660  -17.1311 O   0  0  0  0  0  0  0  0  0  0  0  0
    5.4385  -28.2864  -14.8655 O   0  0  0  0  0  0  0  0  0  0  0  0
    2.8401  -27.0658  -14.5106 C   0  0  0  0  0  0  0  0  0  0  0  0
    1.7309  -26.2407  -14.3064 C   0  0  0  0  0  0  0  0  0  0  0  0
    1.4324  -25.2130  -15.2136 C   0  0  0  0  0  0  0  0  0  0  0  0
   -1.0997  -27.0580  -15.0788 F   0  0  0  0  0  0  0  0  0  0  0  0
   -3.1079  -25.8771  -14.5278 C   0  0  0  0  0  0  0  0  0  0  0  0
    0.3869  -22.9742  -14.9120 N   0  0  0  0  0  0  0  0  0  0  0  0
   -0.8131  -22.4665  -14.6520 N   0  0  0  0  0  0  0  0  0  0  0  0
   -2.2234  -20.6129  -14.3826 O   0  0  0  0  0  0  0  0  0  0  0  0
    0.0674  -20.0992  -14.6342 C   0  0  0  0  0  0  0  0  0  0  0  0
    0.5809  -19.7729  -15.9076 C   0  0  0  0  0  0  0  0  0  0  0  0
   -0.0919  -20.4680  -17.3801 Cl  0  0  0  0  0  0  0  0  0  0  0  0
    1.7585  -18.6683  -13.6208 C   0  0  0  0  0  0  0  0  0  0  0  0
    0.6452  -19.5185  -13.4721 C   0  0  0  0  0  0  0  0  0  0  0  0
    0.1200  -19.8210  -12.0797 C   0  0  2  0  0  0  0  0  0  0  0  0
    0.9469  -19.2928  -11.1028 F   0  0  0  0  0  0  0  0  0  0  0  0
    0.0491  -21.1892  -11.8988 F   0  0  0  0  0  0  0  0  0  0  0  0
   -1.1379  -19.2722  -11.9048 F   0  0  0  0  0  0  0  0  0  0  0  0
   -4.8385  -24.6629  -14.0724 H   0  0  0  0  0  0  0  0  0  0  0  0
   -3.5947  -22.5178  -14.0946 H   0  0  0  0  0  0  0  0  0  0  0  0
    3.1103  -17.6999  -14.9836 H   0  0  0  0  0  0  0  0  0  0  0  0
    2.0686  -18.6607  -17.0001 H   0  0  0  0  0  0  0  0  0  0  0  0
    4.0249  -25.6460  -17.3758 H   0  0  0  0  0  0  0  0  0  0  0  0
    5.4794  -28.9078  -17.4729 H   0  0  0  0  0  0  0  0  0  0  0  0
    3.0438  -27.8522  -13.7945 H   0  0  0  0  0  0  0  0  0  0  0  0
    1.1189  -26.3913  -13.4260 H   0  0  0  0  0  0  0  0  0  0  0  0
   -3.6664  -26.8042  -14.5316 H   0  0  0  0  0  0  0  0  0  0  0  0
    2.2460  -18.2330  -12.7581 H   0  0  0  0  0  0  0  0  0  0  0  0
  1  2  2  0
  2  3  1  0
  3  4  2  0
  4  5  1  0
  4  6  1  0
  8  9  2  0
 10 11  1  0
 11 12  2  0
 12 13  1  0
 13 14  1  0
 14 15  1  0
 14 16  2  0
 13 17  2  0
 17 18  1  0
  6 19  1  0
 18 19  2  0
 11 19  1  0
  5 20  1  0
  1 21  1  0
  5 21  2  0
  6 22  2  0
  3 23  1  0
  7 23  1  0
 22 23  1  0
  7 24  2  0
  7 25  1  0
 25 26  2  0
  9 26  1  0
 26 27  1  0
  8 28  1  0
 25 29  1  0
 28 29  2  0
 29 30  1  0
 30 31  1  1
 30 32  1  0
 30 33  1  0
  1 34  1  0
  2 35  1  0
  8 36  1  0
  9 37  1  0
 12 38  1  0
 15 39  1  0
 17 40  1  0
 18 41  1  0
 21 42  1  0
 28 43  1  0
M  END
