7WQQ_5Z6_A_501
     RDKit          3D

 55 56  0  0  0  0  0  0  0  0999 V2000
   -1.2618   -2.2779   -0.7082 C   0  0  0  0  0  0  0  0  0  0  0  0
   -4.0251   -2.9212    0.3282 C   0  0  0  0  0  0  0  0  0  0  0  0
   -6.0939   -4.1083   -0.1571 C   0  0  0  0  0  0  0  0  0  0  0  0
   -4.0824   -4.5639   -1.4484 C   0  0  0  0  0  0  0  0  0  0  0  0
    0.6164   -0.3233    0.6726 C   0  0  0  0  0  0  0  0  0  0  0  0
    1.3383    0.7846    1.1591 C   0  0  0  0  0  0  0  0  0  0  0  0
    1.7973    2.6383    2.9029 C   0  0  0  0  0  0  0  0  0  0  0  0
    1.0910    0.3592    3.6334 C   0  0  0  0  0  0  0  0  0  0  0  0
    4.6943    2.3835   -1.0981 C   0  0  0  0  0  0  0  0  0  0  0  0
    3.9503    1.1746   -1.7164 C   0  0  0  0  0  0  0  0  0  0  0  0
    4.9815    0.0391   -1.8998 C   0  0  0  0  0  0  0  0  0  0  0  0
    3.4190    1.6130   -3.0990 C   0  0  0  0  0  0  0  0  0  0  0  0
    2.7746    0.6686   -0.8496 C   0  0  0  0  0  0  0  0  0  0  0  0
    2.0160   -0.4328   -1.2935 C   0  0  0  0  0  0  0  0  0  0  0  0
    0.9360   -0.9265   -0.5513 C   0  0  0  0  0  0  0  0  0  0  0  0
    0.1659   -2.0919   -1.0551 C   0  0  0  0  0  0  0  0  0  0  0  0
   -1.9327   -3.3951   -1.0242 C   0  0  0  0  0  0  0  0  0  0  0  0
   -3.3665   -3.6099   -0.7089 C   0  0  0  0  0  0  0  0  0  0  0  0
   -5.3753   -3.1659    0.5963 C   0  0  0  0  0  0  0  0  0  0  0  0
   -7.5228   -4.3628    0.1306 C   0  0  0  0  0  0  0  0  0  0  0  0
   -5.4324   -4.8077   -1.1807 C   0  0  0  0  0  0  0  0  0  0  0  0
    0.9362    1.4117    2.5137 C   0  0  0  0  0  0  0  0  0  0  0  0
   -0.5349    1.8798    2.4498 C   0  0  0  0  0  0  0  0  0  0  0  0
    2.4164    1.2673    0.3809 C   0  0  0  0  0  0  0  0  0  0  0  0
    0.7371   -2.9247   -1.8122 O   0  0  0  0  0  0  0  0  0  0  0  0
   -8.1686   -5.2113   -0.5424 O   0  0  0  0  0  0  0  0  0  0  0  0
   -8.1688   -3.6661    1.1487 O   0  0  0  0  0  0  0  0  0  0  0  0
   -1.7758   -1.4608   -0.2230 H   0  0  0  0  0  0  0  0  0  0  0  0
   -3.5013   -2.2112    0.9531 H   0  0  0  0  0  0  0  0  0  0  0  0
   -3.5974   -5.1173   -2.2436 H   0  0  0  0  0  0  0  0  0  0  0  0
   -0.1880   -0.7353    1.2645 H   0  0  0  0  0  0  0  0  0  0  0  0
    1.4638    3.0617    3.8754 H   0  0  0  0  0  0  0  0  0  0  0  0
    2.8659    2.3540    3.0165 H   0  0  0  0  0  0  0  0  0  0  0  0
    1.7073    3.4432    2.1415 H   0  0  0  0  0  0  0  0  0  0  0  0
    0.8495    0.7997    4.6251 H   0  0  0  0  0  0  0  0  0  0  0  0
    0.4112   -0.5048    3.4807 H   0  0  0  0  0  0  0  0  0  0  0  0
    2.1354   -0.0201    3.6646 H   0  0  0  0  0  0  0  0  0  0  0  0
    5.5314    2.7087   -1.7536 H   0  0  0  0  0  0  0  0  0  0  0  0
    5.1305    2.1181   -0.1107 H   0  0  0  0  0  0  0  0  0  0  0  0
    4.0108    3.2520   -0.9794 H   0  0  0  0  0  0  0  0  0  0  0  0
    5.8598    0.3935   -2.4819 H   0  0  0  0  0  0  0  0  0  0  0  0
    5.3398   -0.3200   -0.9108 H   0  0  0  0  0  0  0  0  0  0  0  0
    4.5492   -0.8237   -2.4481 H   0  0  0  0  0  0  0  0  0  0  0  0
    2.6423    2.3995   -2.9821 H   0  0  0  0  0  0  0  0  0  0  0  0
    4.2406    2.0236   -3.7254 H   0  0  0  0  0  0  0  0  0  0  0  0
    2.9728    0.7628   -3.6555 H   0  0  0  0  0  0  0  0  0  0  0  0
    2.2573   -0.9078   -2.2349 H   0  0  0  0  0  0  0  0  0  0  0  0
   -1.4218   -4.1783   -1.5724 H   0  0  0  0  0  0  0  0  0  0  0  0
   -5.8536   -2.6206    1.4003 H   0  0  0  0  0  0  0  0  0  0  0  0
   -5.9571   -5.5449   -1.7755 H   0  0  0  0  0  0  0  0  0  0  0  0
   -1.2311    1.0296    2.2943 H   0  0  0  0  0  0  0  0  0  0  0  0
   -0.6740    2.6018    1.6162 H   0  0  0  0  0  0  0  0  0  0  0  0
   -0.8320    2.3793    3.3976 H   0  0  0  0  0  0  0  0  0  0  0  0
    2.9804    2.1088    0.7357 H   0  0  0  0  0  0  0  0  0  0  0  0
   -9.1468   -3.8326    1.3538 H   0  0  0  0  0  0  0  0  0  0  0  0
  5  6  2  0
  9 10  1  0
 10 11  1  0
 10 12  1  0
 10 13  1  0
 13 14  1  0
  5 15  1  0
 14 15  2  0
 15 16  1  0
  1 16  1  0
  1 17  2  0
 17 18  1  0
  4 18  1  0
  2 18  2  0
  2 19  1  0
  3 19  2  0
  3 20  1  0
  4 21  2  0
  3 21  1  0
  7 22  1  0
  8 22  1  0
  6 22  1  0
 22 23  1  0
  6 24  1  0
 13 24  2  0
 16 25  2  0
 20 26  2  0
 20 27  1  0
  1 28  1  0
  2 29  1  0
  4 30  1  0
  5 31  1  0
  7 32  1  0
  7 33  1  0
  7 34  1  0
  8 35  1  0
  8 36  1  0
  8 37  1  0
  9 38  1  0
  9 39  1  0
  9 40  1  0
 11 41  1  0
 11 42  1  0
 11 43  1  0
 12 44  1  0
 12 45  1  0
 12 46  1  0
 14 47  1  0
 17 48  1  0
 19 49  1  0
 21 50  1  0
 23 51  1  0
 23 52  1  0
 23 53  1  0
 24 54  1  0
 27 55  1  0
M  END
