1R58_AO5_A_501
     RDKit          3D

 45 45  0  0  0  0  0  0  0  0999 V2000
   17.0815   30.1502   22.5545 C   0  0  2  0  0  0  0  0  0  0  0  0
   18.3791   30.6325   21.9005 C   0  0  2  0  0  0  0  0  0  0  0  0
   16.6989   30.9992   23.7700 C   0  0  1  0  0  0  0  0  0  0  0  0
   17.1063   28.3525   22.9521 S   0  0  0  0  0  0  0  0  0  0  0  0
   16.5438   27.6404   21.3561 C   0  0  2  0  0  0  0  0  0  0  0  0
   17.0770   28.4404   20.1559 C   0  0  1  0  0  0  0  0  0  0  0  0
   18.3331   29.2808   20.4911 C   0  0  1  0  0  0  0  0  0  0  0  0
   19.4869   28.3945   20.6750 N   0  0  0  0  0  0  0  0  0  0  0  0
   18.6232   30.3349   19.3896 C   0  0  2  0  0  0  0  0  0  0  0  0
   18.5000   31.6267   19.9280 O   0  0  0  0  0  0  0  0  0  0  0  0
   17.6680   30.1908   18.2312 C   0  0  0  0  0  0  0  0  0  0  0  0
   17.8331   30.8948   17.1980 O   0  0  0  0  0  0  0  0  0  0  0  0
   16.5579   29.2871   18.3180 N   0  0  0  0  0  0  0  0  0  0  0  0
   15.4065   29.4610   17.5283 N   0  0  0  0  0  0  0  0  0  0  0  0
   15.4676   29.3778   16.0961 C   0  0  0  0  0  0  0  0  0  0  0  0
   15.3415   28.2560   15.5334 O   0  0  0  0  0  0  0  0  0  0  0  0
   15.6983   30.5849   15.2660 C   0  0  0  0  0  0  0  0  0  0  0  0
   15.7072   30.5105   13.8600 C   0  0  0  0  0  0  0  0  0  0  0  0
   15.9332   31.6569   13.0921 C   0  0  0  0  0  0  0  0  0  0  0  0
   16.1581   32.8862   13.7148 C   0  0  0  0  0  0  0  0  0  0  0  0
   16.1637   32.9722   15.1096 C   0  0  0  0  0  0  0  0  0  0  0  0
   15.9392   31.8274   15.8825 C   0  0  0  0  0  0  0  0  0  0  0  0
   16.4527   34.5160   15.8911 Cl  0  0  0  0  0  0  0  0  0  0  0  0
   16.2726   30.2792   21.8030 H   0  0  0  0  0  0  0  0  0  0  0  0
   18.2648   30.6448   20.7961 H   0  0  0  0  0  0  0  0  0  0  0  0
   19.2383   29.9860   22.1717 H   0  0  0  0  0  0  0  0  0  0  0  0
   18.6063   31.6670   22.2356 H   0  0  0  0  0  0  0  0  0  0  0  0
   17.4990   31.7419   23.9756 H   0  0  0  0  0  0  0  0  0  0  0  0
   15.7576   31.5519   23.5652 H   0  0  0  0  0  0  0  0  0  0  0  0
   16.5620   30.3806   24.6792 H   0  0  0  0  0  0  0  0  0  0  0  0
   15.4334   27.6381   21.3462 H   0  0  0  0  0  0  0  0  0  0  0  0
   16.8547   26.5837   21.2561 H   0  0  0  0  0  0  0  0  0  0  0  0
   17.2917   27.7605   19.3042 H   0  0  0  0  0  0  0  0  0  0  0  0
   16.2624   29.1226   19.8317 H   0  0  0  0  0  0  0  0  0  0  0  0
   18.1483   29.8176   21.4496 H   0  0  0  0  0  0  0  0  0  0  0  0
   19.9069   28.1756   19.7428 H   0  0  0  0  0  0  0  0  0  0  0  0
   19.1721   27.4938   21.1049 H   0  0  0  0  0  0  0  0  0  0  0  0
   19.6687   30.1885   19.0298 H   0  0  0  0  0  0  0  0  0  0  0  0
   19.0012   32.2383   19.3268 H   0  0  0  0  0  0  0  0  0  0  0  0
   16.6023   28.5018   19.0059 H   0  0  0  0  0  0  0  0  0  0  0  0
   14.5000   29.6976   17.9886 H   0  0  0  0  0  0  0  0  0  0  0  0
   15.5657   29.5676   13.3492 H   0  0  0  0  0  0  0  0  0  0  0  0
   15.9405   31.5903   12.0117 H   0  0  0  0  0  0  0  0  0  0  0  0
   16.3330   33.7692   13.1131 H   0  0  0  0  0  0  0  0  0  0  0  0
   15.9423   31.9118   16.9624 H   0  0  0  0  0  0  0  0  0  0  0  0
  1  2  1  0
  1  3  1  0
  1  4  1  0
  4  5  1  0
  5  6  1  0
  6  7  1  0
  7  8  1  0
  7  9  1  0
  9 10  1  0
  9 11  1  0
 11 12  2  0
 11 13  1  0
 13 14  1  0
 14 15  1  0
 15 16  2  0
 15 17  1  0
 17 18  2  0
 18 19  1  0
 19 20  2  0
 20 21  1  0
 17 22  1  0
 21 22  2  0
 21 23  1  0
  1 24  1  6
  2 25  1  6
  2 26  1  0
  2 27  1  0
  3 28  1  1
  3 29  1  0
  3 30  1  0
  5 31  1  1
  5 32  1  0
  6 33  1  6
  6 34  1  0
  7 35  1  1
  8 36  1  0
  8 37  1  0
  9 38  1  6
 10 39  1  0
 13 40  1  0
 14 41  1  0
 18 42  1  0
 19 43  1  0
 20 44  1  0
 22 45  1  0
M  END
