7ZCC_OGA_D_402
     RDKit          3D

 10  9  0  0  0  0  0  0  0  0999 V2000
   36.2640   16.0820   58.9240 C   0  0  0  0  0  0  0  0  0  0  0  0
   37.4200   16.9510   59.3150 C   0  0  0  0  0  0  0  0  0  0  0  0
   39.8310   17.2560   59.7800 C   0  0  0  0  0  0  0  0  0  0  0  0
   41.1080   16.4310   60.0020 C   0  0  0  0  0  0  0  0  0  0  0  0
   36.5010   14.8390   58.7770 O   0  0  0  0  0  0  0  0  0  0  0  0
   35.1270   16.7310   58.7950 O   0  0  0  0  0  0  0  0  0  0  0  0
   37.1470   18.1060   59.5530 O   0  0  0  0  0  0  0  0  0  0  0  0
   42.2330   16.9670   60.3600 O   0  0  0  0  0  0  0  0  0  0  0  0
   38.7540   16.3980   59.4040 N   0  0  0  0  0  0  0  0  0  0  0  0
   40.9910   15.2110   59.8250 O   0  0  0  0  0  0  0  0  0  0  0  0
  1  2  1  0
  3  4  1  0
  1  5  2  0
  1  6  1  0
  2  7  2  0
  4  8  1  0
  2  9  1  0
  3  9  1  0
  4 10  2  0
M  END
$$$$
