8CI0_8EL_CCC_1002
     RDKit          3D

 26 27  0  0  0  0  0  0  0  0999 V2000
   -7.2216   67.9855   31.2369 C   0  0  0  0  0  0  0  0  0  0  0  0
   -6.1587   67.4216   32.0043 C   0  0  0  0  0  0  0  0  0  0  0  0
   -5.1272   66.8870   31.2605 C   0  0  0  0  0  0  0  0  0  0  0  0
   -5.1157   66.8434   29.9049 N   0  0  0  0  0  0  0  0  0  0  0  0
   -7.2226   67.9457   29.8706 N   0  0  0  0  0  0  0  0  0  0  0  0
   -6.1733   67.3629   29.2676 C   0  0  0  0  0  0  0  0  0  0  0  0
   -6.1958   68.3257   36.4756 C   0  0  0  0  0  0  0  0  0  0  0  0
   -6.1834   67.2967   27.7767 C   0  0  0  0  0  0  0  0  0  0  0  0
   -8.3912   72.1640   36.4362 C   0  0  0  0  0  0  0  0  0  0  0  0
   -8.0788   70.7822   36.7646 C   0  0  0  0  0  0  0  0  0  0  0  0
   -8.0902   68.8580   33.3758 C   0  0  0  0  0  0  0  0  0  0  0  0
   -6.1119   67.4469   33.5229 C   0  0  0  0  0  0  0  0  0  0  0  0
   -7.0648   68.8770   35.4009 C   0  0  0  0  0  0  0  0  0  0  0  0
   -7.9015   69.9213   35.5437 C   0  0  0  0  0  0  0  0  0  0  0  0
   -8.3095   68.5195   31.8371 N   0  0  0  0  0  0  0  0  0  0  0  0
   -7.0935   68.3761   34.0989 N   0  0  0  0  0  0  0  0  0  0  0  0
   -9.3051   76.0012   39.9742 O   0  0  0  0  0  0  0  0  0  0  0  0
   -7.5142   74.9137   36.2005 O   0  0  0  0  0  0  0  0  0  0  0  0
  -10.9497   77.0145   38.3209 O   0  0  0  0  0  0  0  0  0  0  0  0
  -11.4325   74.8146   39.2761 O   0  0  0  0  0  0  0  0  0  0  0  0
   -7.3249   74.9330   38.7710 O   0  0  0  0  0  0  0  0  0  0  0  0
   -8.1977   72.9503   37.6330 O   0  0  0  0  0  0  0  0  0  0  0  0
   -9.5436   75.0659   37.6268 O   0  0  0  0  0  0  0  0  0  0  0  0
  -10.3360   75.7612   38.8435 P   0  0  2  0  0  0  0  0  0  0  0  0
   -8.0417   74.5207   37.5365 P   0  0  2  0  0  0  0  0  0  0  0  0
   -8.7546   70.2606   34.0831 S   0  0  0  0  0  0  0  0  0  0  0  0
  1  2  2  0
  2  3  1  0
  3  4  2  0
  1  5  1  0
  5  6  2  0
  4  6  1  0
  6  8  1  0
  9 10  1  0
  2 12  1  0
  7 13  1  0
 10 14  1  0
 13 14  2  0
  1 15  1  0
 11 16  1  0
 12 16  1  0
 13 16  1  0
  9 22  1  0
 17 24  2  0
 24 20  1  1
 23 24  1  0
 19 24  1  0
 18 25  2  0
 23 25  1  0
 25 21  1  1
 22 25  1  0
 11 26  1  0
 14 26  1  0
M  END
