7R59_I5F_A_602
     RDKit          3D

 18 20  0  0  0  0  0  0  0  0999 V2000
    1.4136    3.0745    9.6171 C   0  0  0  0  0  0  0  0  0  0  0  0
    2.0619    1.8500    9.7896 C   0  0  0  0  0  0  0  0  0  0  0  0
    3.0771    1.6987   10.7301 C   0  0  0  0  0  0  0  0  0  0  0  0
    0.3516    1.8264    8.0991 C   0  0  0  0  0  0  0  0  0  0  0  0
   -0.4469    3.7721    8.0529 C   0  0  0  0  0  0  0  0  0  0  0  0
   -0.5974    1.7871    7.1513 N   0  0  0  0  0  0  0  0  0  0  0  0
   -1.1019    3.0246    7.1251 N   0  0  0  0  0  0  0  0  0  0  0  0
    1.7564    4.1906   10.3779 C   0  0  0  0  0  0  0  0  0  0  0  0
    0.4667    3.0093    8.6614 N   0  0  0  0  0  0  0  0  0  0  0  0
    4.4523    2.6830   12.4560 O   0  0  0  0  0  0  0  0  0  0  0  0
    3.4391    2.8131   11.5092 C   0  0  0  0  0  0  0  0  0  0  0  0
    2.7796    4.0527   11.3315 C   0  0  0  0  0  0  0  0  0  0  0  0
    1.4225    0.6745    8.7145 S   0  0  0  0  0  0  0  0  0  0  0  0
    3.5748    0.7460   10.8577 H   0  0  0  0  0  0  0  0  0  0  0  0
   -0.6361    4.8162    8.2634 H   0  0  0  0  0  0  0  0  0  0  0  0
    1.2508    5.1375   10.2404 H   0  0  0  0  0  0  0  0  0  0  0  0
    4.7392    3.4639   13.0347 H   0  0  0  0  0  0  0  0  0  0  0  0
    3.0616    4.9071   11.9333 H   0  0  0  0  0  0  0  0  0  0  0  0
  1  2  1  0
  2  3  2  0
  4  6  2  0
  5  7  2  0
  6  7  1  0
  1  8  2  0
  5  9  1  0
  4  9  1  0
  1  9  1  0
  3 11  1  0
 10 11  1  0
  8 12  1  0
 11 12  2  0
  4 13  1  0
  2 13  1  0
  3 14  1  0
  5 15  1  0
  8 16  1  0
 10 17  1  0
 12 18  1  0
M  END
