8C7Y_TXV_B_803
     RDKit          3D

 34 37  0  0  0  0  0  0  0  0999 V2000
    1.3726  111.7305   18.2791 N   0  0  0  0  0  0  0  0  0  0  0  0
   -0.5389  110.8777   20.4117 C   0  0  0  0  0  0  0  0  0  0  0  0
   -0.9383  111.4939   19.2609 C   0  0  0  0  0  0  0  0  0  0  0  0
    3.3496  108.0235   13.6632 N   0  0  0  0  0  0  0  0  0  0  0  0
   -2.2838  111.7535   19.1060 C   0  0  0  0  0  0  0  0  0  0  0  0
    4.9562  112.2366   13.4493 O   0  0  0  0  0  0  0  0  0  0  0  0
   -4.6805  111.6996   19.8880 C   0  0  1  0  0  0  0  0  0  0  0  0
   -2.7497  110.7914   21.2081 C   0  0  0  0  0  0  0  0  0  0  0  0
   -1.4146  110.5092   21.4124 C   0  0  0  0  0  0  0  0  0  0  0  0
    4.3727  107.5987   11.4376 N   0  0  0  0  0  0  0  0  0  0  0  0
   -3.2230  111.4129   20.0671 C   0  0  0  0  0  0  0  0  0  0  0  0
   -4.9433  113.1333   19.8452 C   0  0  0  0  0  0  0  0  0  0  0  0
   -5.1458  110.9909   18.6362 C   0  0  0  0  0  0  0  0  0  0  0  0
    4.8615  114.1973   14.7744 F   0  0  0  0  0  0  0  0  0  0  0  0
    4.0158  113.5252   15.5805 C   0  0  0  0  0  0  0  0  0  0  0  0
    3.5206  114.2223   16.6893 C   0  0  0  0  0  0  0  0  0  0  0  0
    2.6614  113.6514   17.5736 C   0  0  0  0  0  0  0  0  0  0  0  0
    3.6367  112.2050   15.3469 C   0  0  0  0  0  0  0  0  0  0  0  0
    2.7706  111.6551   16.2543 C   0  0  0  0  0  0  0  0  0  0  0  0
    2.3760  110.3763   16.0932 F   0  0  0  0  0  0  0  0  0  0  0  0
    2.2757  112.3352   17.3522 C   0  0  0  0  0  0  0  0  0  0  0  0
   -0.0396  111.8955   18.1864 C   0  0  0  0  0  0  0  0  0  0  0  0
   -0.4663  112.4139   17.1097 O   0  0  0  0  0  0  0  0  0  0  0  0
   -5.1565  114.2816   19.8083 N   0  0  0  0  0  0  0  0  0  0  0  0
   -5.4760  111.1227   21.0582 C   0  0  0  0  0  0  0  0  0  0  0  0
    4.1927  111.5503   14.2003 C   0  0  0  0  0  0  0  0  0  0  0  0
    3.9766  110.1741   13.7994 C   0  0  0  0  0  0  0  0  0  0  0  0
    4.4283  109.6353   12.5980 C   0  0  0  0  0  0  0  0  0  0  0  0
    5.1492  110.2028   11.5692 C   0  0  0  0  0  0  0  0  0  0  0  0
    5.4976  109.4714   10.4463 C   0  0  0  0  0  0  0  0  0  0  0  0
    6.4108  110.1832    9.1384 Cl  0  0  0  0  0  0  0  0  0  0  0  0
    5.0770  108.1485   10.4296 C   0  0  0  0  0  0  0  0  0  0  0  0
    4.0342  108.3113   12.5298 C   0  0  0  0  0  0  0  0  0  0  0  0
    3.3141  109.1453   14.4286 C   0  0  0  0  0  0  0  0  0  0  0  0
  2  3  2  0
  3  5  1  0
  2  9  1  0
  8  9  2  0
  5 11  2  0
  7 11  1  0
  8 11  1  0
  7 12  1  0
  7 13  1  6
 14 15  1  0
 15 16  2  0
 16 17  1  0
 15 18  1  0
 18 19  2  0
 19 20  1  0
 19 21  1  0
  1 21  1  0
 17 21  2  0
  1 22  1  0
  3 22  1  0
 22 23  2  0
 12 24  3  0
  7 25  1  0
  6 26  2  0
 18 26  1  0
 26 27  1  0
 27 28  1  0
 28 29  2  0
 29 30  1  0
 30 31  1  0
 30 32  2  0
 10 32  1  0
 10 33  2  0
 28 33  1  0
  4 33  1  0
  4 34  1  0
 27 34  2  0
M  END
$$$$
