7ZTL_BCN_A_506
     RDKit          3D

 24 23  0  0  0  0  0  0  0  0999 V2000
  -30.4734   33.1837    5.5465 N   0  0  0  0  0  0  0  0  0  0  0  0
  -30.9846   34.1025    6.5884 C   0  0  1  0  0  0  0  0  0  0  0  0
  -29.8808   34.5272    7.5074 C   0  0  0  0  0  0  0  0  0  0  0  0
  -29.7176   33.9386    8.6095 O   0  0  0  0  0  0  0  0  0  0  0  0
  -29.0488   35.5847    7.1538 O   0  0  0  0  0  0  0  0  0  0  0  0
  -31.5045   32.9831    4.5011 C   0  0  2  0  0  0  0  0  0  0  0  0
  -32.9183   33.0674    5.0814 C   0  0  1  0  0  0  0  0  0  0  0  0
  -33.7854   32.2779    4.3157 O   0  0  0  0  0  0  0  0  0  0  0  0
  -30.0210   31.8942    6.1353 C   0  0  2  0  0  0  0  0  0  0  0  0
  -29.0531   32.1492    7.2933 C   0  0  1  0  0  0  0  0  0  0  0  0
  -28.6477   30.9396    7.8747 O   0  0  0  0  0  0  0  0  0  0  0  0
  -31.3961   35.0305    6.1332 H   0  0  0  0  0  0  0  0  0  0  0  0
  -31.8080   33.6269    7.1680 H   0  0  0  0  0  0  0  0  0  0  0  0
  -28.2930   35.4521    6.4926 H   0  0  0  0  0  0  0  0  0  0  0  0
  -31.4047   31.9674    4.0564 H   0  0  0  0  0  0  0  0  0  0  0  0
  -31.3840   33.7209    3.6755 H   0  0  0  0  0  0  0  0  0  0  0  0
  -32.9076   32.6993    6.1319 H   0  0  0  0  0  0  0  0  0  0  0  0
  -33.2751   34.1202    5.0658 H   0  0  0  0  0  0  0  0  0  0  0  0
  -34.6689   32.3233    4.7656 H   0  0  0  0  0  0  0  0  0  0  0  0
  -29.5162   31.2438    5.3862 H   0  0  0  0  0  0  0  0  0  0  0  0
  -30.8671   31.2873    6.5296 H   0  0  0  0  0  0  0  0  0  0  0  0
  -28.1534   32.6668    6.8987 H   0  0  0  0  0  0  0  0  0  0  0  0
  -29.5129   32.8180    8.0548 H   0  0  0  0  0  0  0  0  0  0  0  0
  -29.3794   30.6559    8.4828 H   0  0  0  0  0  0  0  0  0  0  0  0
  1  2  1  0
  2  3  1  0
  3  4  2  0
  3  5  1  0
  1  6  1  0
  6  7  1  0
  7  8  1  0
  1  9  1  0
  9 10  1  0
 10 11  1  0
  2 12  1  6
  2 13  1  0
  5 14  1  0
  6 15  1  6
  6 16  1  0
  7 17  1  1
  7 18  1  0
  8 19  1  0
  9 20  1  6
  9 21  1  0
 10 22  1  6
 10 23  1  0
 11 24  1  0
M  END
