7ZDY_6MJ_Y_903
     RDKit          3D

 11 11  0  0  0  0  0  0  0  0999 V2000
   26.4676    7.7238   71.0970 C   0  0  0  0  0  0  0  0  0  0  0  0
   26.9989    6.9539   69.9990 O   0  0  0  0  0  0  0  0  0  0  0  0
   26.1766    6.9549   68.8029 C   0  0  1  0  0  0  0  0  0  0  0  0
   26.8831    5.9365   67.8624 C   0  0  1  0  0  0  0  0  0  0  0  0
   26.0697    5.4286   66.7061 C   0  0  2  0  0  0  0  0  0  0  0  0
   24.7894    4.8393   67.3123 C   0  0  1  0  0  0  0  0  0  0  0  0
   24.0532    5.9849   68.0395 C   0  0  0  0  0  0  0  0  0  0  0  0
   24.8804    6.3733   69.1879 O   0  0  0  0  0  0  0  0  0  0  0  0
   23.9854    4.3977   66.2404 O   0  0  0  0  0  0  0  0  0  0  0  0
   26.7498    4.2798   66.1469 O   0  0  0  0  0  0  0  0  0  0  0  0
   28.1027    6.5466   67.2756 O   0  0  0  0  0  0  0  0  0  0  0  0
  1  2  1  0
  3  2  1  1
  3  4  1  0
  4  5  1  0
  5  6  1  0
  6  7  1  0
  3  8  1  0
  7  8  1  0
  6  9  1  6
  5 10  1  1
  4 11  1  6
M  END
