8C5M_MTA_A_7216
     RDKit          3D

 35 37  0  0  0  0  0  0  0  0999 V2000
   82.2008  -16.0022    4.2683 C   0  0  0  0  0  0  0  0  0  0  0  0
   83.6573  -16.9369    4.8729 S   0  0  0  0  0  0  0  0  0  0  0  0
   84.8586  -16.7116    3.5225 C   0  0  0  0  0  0  0  0  0  0  0  0
   84.5548  -15.5438    2.5653 C   0  0  1  0  0  0  0  0  0  0  0  0
   83.2458  -14.9853    2.7321 O   0  0  0  0  0  0  0  0  0  0  0  0
   84.5684  -13.1666    3.1487 C   0  0  2  0  0  0  0  0  0  0  0  0
   85.0593  -11.9282    2.7120 O   0  0  0  0  0  0  0  0  0  0  0  0
   85.4975  -14.3696    2.8738 C   0  0  2  0  0  0  0  0  0  0  0  0
   86.3342  -14.0830    1.7795 O   0  0  0  0  0  0  0  0  0  0  0  0
   83.2688  -13.6111    2.4710 C   0  0  2  0  0  0  0  0  0  0  0  0
   82.1292  -12.9530    3.0623 N   0  0  0  0  0  4  0  0  0  0  0  0
   81.5350  -13.2570    4.2467 C   0  0  0  0  0  0  0  0  0  0  0  0
   80.5348  -12.4715    4.5322 N   0  0  0  0  0  0  0  0  0  0  0  0
   80.4620  -11.5930    3.4775 C   0  0  0  0  0  0  0  0  0  0  0  0
   79.6094  -10.5017    3.1886 C   0  0  0  0  0  0  0  0  0  0  0  0
   78.6140  -10.1203    3.9891 N   0  0  0  0  0  0  0  0  0  0  0  0
   79.8158   -9.8241    2.0561 N   0  0  0  0  0  0  0  0  0  0  0  0
   80.8266  -10.2141    1.2828 C   0  0  0  0  0  0  0  0  0  0  0  0
   81.6785  -11.2144    1.4376 N   0  0  0  0  0  0  0  0  0  0  0  0
   81.4566  -11.8716    2.5614 C   0  0  0  0  0  0  0  0  0  0  0  0
   81.4136  -16.0621    4.9905 H   0  0  0  0  0  0  0  0  0  0  0  0
   81.8676  -16.4212    3.3419 H   0  0  0  0  0  0  0  0  0  0  0  0
   82.4712  -14.9776    4.1197 H   0  0  0  0  0  0  0  0  0  0  0  0
   84.8838  -17.6135    2.9474 H   0  0  0  0  0  0  0  0  0  0  0  0
   85.7922  -16.4781    3.9903 H   0  0  0  0  0  0  0  0  0  0  0  0
   84.6624  -15.9571    1.5843 H   0  0  0  0  0  0  0  0  0  0  0  0
   84.4528  -12.9587    4.1919 H   0  0  0  0  0  0  0  0  0  0  0  0
   85.2176  -11.9621    1.7556 H   0  0  0  0  0  0  0  0  0  0  0  0
   86.1380  -14.5955    3.7006 H   0  0  0  0  0  0  0  0  0  0  0  0
   85.7912  -13.8716    1.0040 H   0  0  0  0  0  0  0  0  0  0  0  0
   83.2266  -13.3743    1.4284 H   0  0  0  0  0  0  0  0  0  0  0  0
   81.8441  -14.0298    4.8568 H   0  0  0  0  0  0  0  0  0  0  0  0
   78.4441  -10.6056    4.8287 H   0  0  0  0  0  0  0  0  0  0  0  0
   78.0488   -9.3535    3.7408 H   0  0  0  0  0  0  0  0  0  0  0  0
   80.9676   -9.6489    0.4309 H   0  0  0  0  0  0  0  0  0  0  0  0
  1  2  1  0
  2  3  1  0
  4  3  1  0
  4  5  1  0
  6  7  1  0
  4  8  1  0
  6  8  1  0
  8  9  1  0
  5 10  1  0
  6 10  1  0
 10 11  1  0
 11 12  4  0
 12 13  4  0
 13 14  4  0
 14 15  4  0
 15 16  1  0
 15 17  4  0
 17 18  4  0
 18 19  4  0
 11 20  4  0
 14 20  4  0
 19 20  4  0
  1 21  1  0
  1 22  1  0
  1 23  1  0
  3 24  1  0
  3 25  1  0
  4 26  1  6
  6 27  1  1
  7 28  1  0
  8 29  1  1
  9 30  1  0
 10 31  1  6
 12 32  1  0
 16 33  1  0
 16 34  1  0
 18 35  1  0
M  CHG  1  11   1
M  END
