
     RDKit          3D

 51 53  0  0  0  0  0  0  0  0999 V2000
  -19.9726  -43.1683   37.9803 N   0  0  0  0  0  0  0  0  0  0  0  0
  -20.7602  -44.0880   38.5757 C   0  0  0  0  0  0  0  0  0  0  0  0
  -21.9873  -43.9225   39.1060 N   0  0  0  0  0  0  0  0  0  0  0  0
  -22.3817  -42.6378   39.0414 C   0  0  0  0  0  0  0  0  0  0  0  0
  -21.6772  -41.5912   38.4637 C   0  0  0  0  0  0  0  0  0  0  0  0
  -20.4281  -41.9000   37.8957 C   0  0  0  0  0  0  0  0  0  0  0  0
  -19.6147  -40.9560   37.2810 N   0  0  0  0  0  0  0  0  0  0  0  0
  -22.3629  -40.4032   38.5878 N   0  0  0  0  0  0  0  0  0  0  0  0
  -23.4585  -40.7189   39.2425 C   0  0  0  0  0  0  0  0  0  0  0  0
  -23.5280  -42.0641   39.5260 N   0  0  0  0  0  0  0  0  0  0  0  0
  -24.6239  -42.6739   40.2682 C   0  0  1  0  0  0  0  0  0  0  0  0
  -24.5049  -42.4706   41.7834 C   0  0  2  0  0  0  0  0  0  0  0  0
  -23.6688  -43.4361   42.4096 O   0  0  0  0  0  0  0  0  0  0  0  0
  -25.9648  -42.4883   42.2137 C   0  0  2  0  0  0  0  0  0  0  0  0
  -26.4443  -43.8357   42.2129 O   0  0  0  0  0  0  0  0  0  0  0  0
  -27.8773  -44.1103   42.8686 P   0  0  0  0  0  5  0  0  0  0  0  0
  -28.7953  -42.9521   42.9956 O   0  0  0  0  0  0  0  0  0  0  0  0
  -27.4916  -44.8114   44.2515 O   0  0  0  0  0  0  0  0  0  0  0  0
  -28.4482  -45.3307   42.0190 O   0  0  0  0  0  0  0  0  0  0  0  0
  -26.6330  -41.7433   41.0594 C   0  0  2  0  0  0  0  0  0  0  0  0
  -25.8968  -42.1070   39.8731 O   0  0  0  0  0  0  0  0  0  0  0  0
  -26.5982  -40.2206   41.2012 C   0  0  0  0  0  0  0  0  0  0  0  0
  -25.3024  -39.8102   41.6078 O   0  0  0  0  0  0  0  0  0  0  0  0
  -25.1332  -38.6083   42.6679 P   0  0  2  0  0  5  0  0  0  0  0  0
  -23.7573  -38.0432   42.7237 O   0  0  0  0  0  0  0  0  0  0  0  0
  -25.6252  -39.2707   44.0395 O   0  0  0  0  0  0  0  0  0  0  0  0
  -26.2789  -37.5828   42.2711 O   0  0  0  0  0  0  0  0  0  0  0  0
  -26.0765  -36.0212   42.1174 P   0  0  0  0  0  5  0  0  0  0  0  0
  -27.2677  -35.1905   41.8000 O   0  0  0  0  0  0  0  0  0  0  0  0
  -25.3503  -35.6405   43.4953 O   0  0  0  0  0  0  0  0  0  0  0  0
  -24.8648  -35.9175   41.0653 O   0  0  0  0  0  0  0  0  0  0  0  0
  -24.9598  -34.9348   38.8336 C   0  0  0  0  0  0  0  0  0  0  0  0
  -25.1610  -36.1999   39.7038 C   0  0  0  0  0  0  0  0  0  0  0  0
  -24.8277  -35.3577   37.3578 C   0  0  0  0  0  0  0  0  0  0  0  0
  -26.2030  -34.0296   38.9725 C   0  0  0  0  0  0  0  0  0  0  0  0
  -23.6935  -34.1962   39.3504 C   0  0  1  0  0  0  0  0  0  0  0  0
  -22.5504  -35.0602   39.2238 O   0  0  0  0  0  0  0  0  0  0  0  0
  -23.3984  -32.8754   38.6122 C   0  0  0  0  0  0  0  0  0  0  0  0
  -23.8747  -31.8032   38.9659 O   0  0  0  0  0  0  0  0  0  0  0  0
  -22.5698  -33.0375   37.5206 N   0  0  0  0  0  0  0  0  0  0  0  0
  -21.1655  -32.6727   37.5462 C   0  0  0  0  0  0  0  0  0  0  0  0
  -21.0085  -31.1595   37.5887 C   0  0  0  0  0  0  0  0  0  0  0  0
  -20.4580  -30.6155   36.2888 C   0  0  0  0  0  0  0  0  0  0  0  0
  -21.1409  -30.0499   35.4421 O   0  0  0  0  0  0  0  0  0  0  0  0
  -19.0966  -30.8052   36.1619 N   0  0  0  0  0  0  0  0  0  0  0  0
  -18.5254  -31.3114   34.9300 C   0  0  0  0  0  0  0  0  0  0  0  0
  -18.1706  -30.2124   33.9271 C   0  0  0  0  0  0  0  0  0  0  0  0
  -17.2929  -30.8236   32.4487 S   0  0  0  0  0  0  0  0  0  0  0  0
  -15.6397  -30.8464   33.0420 C   0  0  0  0  0  0  0  0  0  0  0  0
  -15.3779  -31.0680   34.2188 O   0  0  0  0  0  0  0  0  0  0  0  0
  -14.5990  -30.6303   31.9803 C   0  0  0  0  0  0  0  0  0  0  0  0
  1  2  4  0
  2  3  4  0
  3  4  4  0
  4  5  4  0
  1  6  4  0
  5  6  4  0
  6  7  1  0
  5  8  4  0
  8  9  4  0
  4 10  4  0
  9 10  4  0
 11 10  1  6
 11 12  1  0
 12 13  1  1
 12 14  1  0
 14 15  1  6
 15 16  1  0
 16 17  2  0
 16 18  1  0
 16 19  1  0
 14 20  1  0
 11 21  1  0
 20 21  1  0
 20 22  1  1
 22 23  1  0
 24 23  1  0
 24 25  2  0
 24 26  1  1
 24 27  1  0
 28 27  1  0
 28 29  2  0
 28 30  1  0
 28 31  1  0
 31 33  1  0
 32 33  1  0
 32 34  1  0
 32 35  1  0
 32 36  1  0
 36 37  1  6
 36 38  1  0
 38 39  2  0
 38 40  1  0
 40 41  1  0
 41 42  1  0
 42 43  1  0
 43 44  2  0
 43 45  1  0
 45 46  1  0
 46 47  1  0
 47 48  1  0
 48 49  1  0
 49 50  2  0
 49 51  1  0
M  END
