1OQ5_CEL_A_701
     RDKit          3D

 40 42  0  0  0  0  0  0  0  0999 V2000
   -4.5955   -5.9813    1.8936 S   0  0  1  0  0  6  0  0  0  0  0  0
   -3.3662   -4.8639    1.3118 C   0  0  0  0  0  0  0  0  0  0  0  0
   -2.0088   -5.1400    1.5218 C   0  0  0  0  0  0  0  0  0  0  0  0
   -1.0313   -4.2487    1.0697 C   0  0  0  0  0  0  0  0  0  0  0  0
   -1.3989   -3.0752    0.3945 C   0  0  0  0  0  0  0  0  0  0  0  0
   -2.7623   -2.7865    0.2135 C   0  0  0  0  0  0  0  0  0  0  0  0
   -3.7389   -3.6783    0.6651 C   0  0  0  0  0  0  0  0  0  0  0  0
   -0.3850   -2.1601   -0.0542 N   0  0  0  0  0  4  0  0  0  0  0  0
   -0.0868   -0.9335    0.4408 C   0  0  0  0  0  0  0  0  0  0  0  0
   -0.8637   -0.1805    1.4508 C   0  0  0  0  0  0  0  0  0  0  0  0
   -2.2524   -0.0346    1.3043 C   0  0  0  0  0  0  0  0  0  0  0  0
   -2.9944    0.6672    2.2588 C   0  0  0  0  0  0  0  0  0  0  0  0
   -2.3582    1.2344    3.3728 C   0  0  0  0  0  0  0  0  0  0  0  0
   -3.1601    1.9542    4.4161 C   0  0  0  0  0  0  0  0  0  0  0  0
   -0.9769    1.0581    3.5403 C   0  0  0  0  0  0  0  0  0  0  0  0
   -0.2348    0.3558    2.5866 C   0  0  0  0  0  0  0  0  0  0  0  0
    1.0255   -0.4493   -0.2208 C   0  0  0  0  0  0  0  0  0  0  0  0
    1.3361   -1.4367   -1.1363 C   0  0  0  0  0  0  0  0  0  0  0  0
    2.5000   -1.4249   -2.0748 C   0  0  2  0  0  0  0  0  0  0  0  0
    2.8323   -0.1228   -2.4020 F   0  0  0  0  0  0  0  0  0  0  0  0
    2.1676   -2.1121   -3.2270 F   0  0  0  0  0  0  0  0  0  0  0  0
    3.5913   -2.0316   -1.4802 F   0  0  0  0  0  0  0  0  0  0  0  0
    0.4793   -2.4686   -1.0092 N   0  0  0  0  0  0  0  0  0  0  0  0
   -3.8817   -7.5328    2.1603 N   0  0  0  0  0  0  0  0  0  0  0  0
   -5.1800   -5.4705    3.1808 O   0  0  0  0  0  0  0  0  0  0  0  0
   -5.6970   -6.0989    0.8772 O   0  0  0  0  0  0  0  0  0  0  0  0
   -1.7066   -6.0430    2.0368 H   0  0  0  0  0  0  0  0  0  0  0  0
    0.0140   -4.4776    1.2347 H   0  0  0  0  0  0  0  0  0  0  0  0
   -3.0697   -1.8657   -0.2652 H   0  0  0  0  0  0  0  0  0  0  0  0
   -4.7843   -3.4396    0.5169 H   0  0  0  0  0  0  0  0  0  0  0  0
   -2.7609   -0.4545    0.4451 H   0  0  0  0  0  0  0  0  0  0  0  0
   -4.0647    0.7694    2.1281 H   0  0  0  0  0  0  0  0  0  0  0  0
   -4.0446    2.4471    3.9593 H   0  0  0  0  0  0  0  0  0  0  0  0
   -2.5469    2.7385    4.9092 H   0  0  0  0  0  0  0  0  0  0  0  0
   -3.5050    1.2288    5.1822 H   0  0  0  0  0  0  0  0  0  0  0  0
   -0.4747    1.4602    4.4116 H   0  0  0  0  0  0  0  0  0  0  0  0
    0.8273    0.2183    2.7451 H   0  0  0  0  0  0  0  0  0  0  0  0
    1.5231    0.5013   -0.0783 H   0  0  0  0  0  0  0  0  0  0  0  0
   -4.6522   -8.1796    2.4415 H   0  0  0  0  0  0  0  0  0  0  0  0
   -3.5279   -7.8687    1.2365 H   0  0  0  0  0  0  0  0  0  0  0  0
  1  2  1  0
  2  3  4  0
  3  4  4  0
  4  5  4  0
  5  6  4  0
  2  7  4  0
  6  7  4  0
  5  8  1  0
  8  9  4  0
  9 10  1  0
 10 11  4  0
 11 12  4  0
 12 13  4  0
 13 14  1  0
 13 15  4  0
 10 16  4  0
 15 16  4  0
  9 17  4  0
 17 18  4  0
 18 19  1  0
 19 20  1  1
 19 21  1  0
 19 22  1  0
  8 23  4  0
 18 23  4  0
  1 24  1  6
  1 25  2  0
  1 26  2  0
  3 27  1  0
  4 28  1  0
  6 29  1  0
  7 30  1  0
 11 31  1  0
 12 32  1  0
 14 33  1  0
 14 34  1  0
 14 35  1  0
 15 36  1  0
 16 37  1  0
 17 38  1  0
 24 39  1  0
 24 40  1  0
M  CHG  1   8   1
M  END
