7LJN_GTP_C_501
     RDKit          3D

 32 34  0  0  0  0  0  0  0  0999 V2000
  -22.5180    5.5574  -10.0451 P   0  0  2  0  0  0  0  0  0  0  0  0
  -22.2338    4.3530  -10.9440 O   0  0  0  0  0  0  0  0  0  0  0  0
  -22.3340    5.0545   -8.4440 O   0  0  0  0  0  0  0  0  0  0  0  0
  -24.1274    6.0267  -10.2691 O   0  0  0  0  0  0  0  0  0  0  0  0
  -21.4756    6.8329  -10.3876 O   0  0  0  0  0  0  0  0  0  0  0  0
  -20.4219    6.4060  -11.6367 P   0  0  1  0  0  0  0  0  0  0  0  0
  -19.0956    7.0831  -11.5244 O   0  0  0  0  0  0  0  0  0  0  0  0
  -20.1745    4.7341  -11.6164 O   0  0  0  0  0  0  0  0  0  0  0  0
  -21.1069    6.8256  -13.1360 O   0  0  0  0  0  0  0  0  0  0  0  0
  -21.8836    5.4724  -13.8016 P   0  0  1  0  0  0  0  0  0  0  0  0
  -22.8697    4.9703  -12.7588 O   0  0  0  0  0  0  0  0  0  0  0  0
  -22.7467    6.0066  -15.1543 O   0  0  0  0  0  0  0  0  0  0  0  0
  -20.7234    4.3376  -14.1977 O   0  0  0  0  0  0  0  0  0  0  0  0
  -21.1480    3.0295  -14.1458 C   0  0  0  0  0  0  0  0  0  0  0  0
  -20.7533    2.2454  -15.4050 C   0  0  1  0  0  0  0  0  0  0  0  0
  -20.4503    3.1207  -16.4410 O   0  0  0  0  0  0  0  0  0  0  0  0
  -19.5247    1.4561  -15.0707 C   0  0  1  0  0  0  0  0  0  0  0  0
  -19.5149    0.1738  -15.6212 O   0  0  0  0  0  0  0  0  0  0  0  0
  -18.4641    2.2561  -15.8151 C   0  0  1  0  0  0  0  0  0  0  0  0
  -17.4090    1.4277  -16.1838 O   0  0  0  0  0  0  0  0  0  0  0  0
  -19.2667    2.7166  -17.0143 C   0  0  2  0  0  0  0  0  0  0  0  0
  -18.6251    3.8233  -17.6946 N   0  0  0  0  0  0  0  0  0  0  0  0
  -18.1516    4.9145  -17.0704 C   0  0  0  0  0  0  0  0  0  0  0  0
  -17.6176    5.7515  -17.9808 N   0  0  0  0  0  0  0  0  0  0  0  0
  -17.7511    5.1865  -19.2117 C   0  0  0  0  0  0  0  0  0  0  0  0
  -17.4172    5.5374  -20.4880 C   0  0  0  0  0  0  0  0  0  0  0  0
  -16.8453    6.6233  -20.6859 O   0  0  0  0  0  0  0  0  0  0  0  0
  -17.7015    4.7187  -21.5331 N   0  0  0  0  0  0  0  0  0  0  0  0
  -18.3224    3.5408  -21.3144 C   0  0  0  0  0  0  0  0  0  0  0  0
  -18.6491    2.6368  -22.3640 N   0  0  0  0  0  0  0  0  0  0  0  0
  -18.6529    3.1923  -20.0552 N   0  0  0  0  0  0  0  0  0  0  0  0
  -18.3778    3.9959  -18.9978 C   0  0  0  0  0  0  0  0  0  0  0  0
  1  2  2  0
  1  3  1  1
  1  4  1  0
  1  5  1  0
  5  6  1  0
  6  7  2  0
  6  8  1  6
  6  9  1  0
  9 10  1  0
 10 11  2  0
 10 12  1  6
 10 13  1  0
 13 14  1  0
 15 14  1  1
 15 16  1  0
 15 17  1  0
 17 18  1  6
 17 19  1  0
 19 20  1  6
 16 21  1  0
 19 21  1  0
 21 22  1  1
 22 23  1  0
 23 24  2  0
 24 25  1  0
 25 26  1  0
 26 27  2  0
 26 28  1  0
 28 29  1  0
 29 30  1  0
 29 31  2  0
 22 32  1  0
 25 32  2  0
 31 32  1  0
M  END
$$$$
