7D9L_GSF_A_305
     RDKit          3D

 39 38  0  0  0  0  0  0  0  0999 V2000
   11.4030   23.5738    7.4719 C   0  0  0  0  0  0  0  0  0  0  0  0
   10.1670   23.5020    6.7515 C   0  0  0  0  0  0  0  0  0  0  0  0
    9.0831   23.2709    7.7767 C   0  0  0  0  0  0  0  0  0  0  0  0
    7.8341   23.4854    7.6612 O   0  0  0  0  0  0  0  0  0  0  0  0
   10.7529   25.7782    8.3010 C   0  0  0  0  0  0  0  0  0  0  0  0
   10.1788   26.7172    7.6780 O   0  0  0  0  0  0  0  0  0  0  0  0
   10.4197   25.5149    9.4729 O   0  0  0  0  0  0  0  0  0  0  0  0
   13.0835   24.9195    8.5197 N   0  0  0  0  0  0  0  0  0  0  0  0
   11.8822   25.0209    7.6346 C   0  0  1  0  0  0  0  0  0  0  0  0
    9.5610   22.9343    8.9429 N   0  0  0  0  0  0  0  0  0  0  0  0
   10.8517   23.3942    9.3306 C   0  0  1  0  0  0  0  0  0  0  0  0
   11.4119   24.3120    8.2554 C   0  0  0  0  0  0  0  0  0  0  0  0
   11.0061   26.0394    8.5058 S   0  0  0  0  0  4  0  0  0  0  0  0
    9.6038   26.1389    8.1383 O   0  0  0  0  0  0  0  0  0  0  0  0
   11.8116   26.7848    7.3932 O   0  0  0  0  0  0  0  0  0  0  0  0
   10.8247   24.1451   10.6278 C   0  0  0  0  0  0  0  0  0  0  0  0
   10.3644   23.6107   11.5895 O   0  0  0  0  0  0  0  0  0  0  0  0
   11.2424   25.4148   10.6442 N   0  0  0  0  0  0  0  0  0  0  0  0
   10.6610   26.4098    9.7580 C   0  0  0  0  0  0  0  0  0  0  0  0
   10.6988   26.0765    8.3003 C   0  0  0  0  0  0  0  0  0  0  0  0
    9.6864   26.4404    7.6777 O   0  0  0  0  0  0  0  0  0  0  0  0
   11.6774   25.4510    7.7749 O   0  0  0  0  0  0  0  0  0  0  0  0
   12.1482   23.0200    6.9395 H   0  0  0  0  0  0  0  0  0  0  0  0
   11.2438   23.1639    8.4474 H   0  0  0  0  0  0  0  0  0  0  0  0
   10.1939   22.6920    6.0532 H   0  0  0  0  0  0  0  0  0  0  0  0
    9.9890   24.4009    6.1983 H   0  0  0  0  0  0  0  0  0  0  0  0
   10.4286   26.9157    6.7970 H   0  0  0  0  0  0  0  0  0  0  0  0
   13.8203   24.4042    8.0367 H   0  0  0  0  0  0  0  0  0  0  0  0
   12.8329   24.4294    9.3784 H   0  0  0  0  0  0  0  0  0  0  0  0
   12.1336   25.5234    6.7239 H   0  0  0  0  0  0  0  0  0  0  0  0
    9.0331   22.3664    9.5505 H   0  0  0  0  0  0  0  0  0  0  0  0
   11.4676   22.5289    9.4567 H   0  0  0  0  0  0  0  0  0  0  0  0
   11.0170   24.0052    7.3097 H   0  0  0  0  0  0  0  0  0  0  0  0
   12.4778   24.2300    8.2963 H   0  0  0  0  0  0  0  0  0  0  0  0
   12.7589   26.7441    7.5977 H   0  0  0  0  0  0  0  0  0  0  0  0
   11.9565   25.6811   11.2674 H   0  0  0  0  0  0  0  0  0  0  0  0
   11.1924   27.3277    9.8998 H   0  0  0  0  0  0  0  0  0  0  0  0
    9.6245   26.4652   10.0198 H   0  0  0  0  0  0  0  0  0  0  0  0
    9.0005   26.8978    8.1241 H   0  0  0  0  0  0  0  0  0  0  0  0
  1  2  1  0
  2  3  1  0
  3  4  2  0
  5  6  1  0
  5  7  2  0
  1  9  1  0
  5  9  1  0
  9  8  1  0
  3 10  1  0
 10 11  1  0
 11 12  1  0
 12 13  1  0
 13 14  2  0
 13 15  1  6
 11 16  1  0
 16 17  2  0
 16 18  1  0
 18 19  1  0
 19 20  1  0
 20 21  1  0
 20 22  2  0
  1 23  1  0
  1 24  1  0
  2 25  1  0
  2 26  1  0
  6 27  1  0
  8 28  1  0
  8 29  1  0
  9 30  1  6
 10 31  1  0
 11 32  1  1
 12 33  1  0
 12 34  1  0
 15 35  1  0
 18 36  1  0
 19 37  1  0
 19 38  1  0
 21 39  1  0
M  END
