1W2G_THM_B_1210
     RDKit          3D

 17 18  0  0  0  0  0  0  0  0999 V2000
   48.4571   38.2819   76.6694 O   0  0  0  0  0  0  0  0  0  0  0  0
   48.6562   37.2510   75.7771 C   0  0  0  0  0  0  0  0  0  0  0  0
   47.6529   36.1508   75.9930 C   0  0  1  0  0  0  0  0  0  0  0  0
   46.8697   36.4625   77.1141 O   0  0  0  0  0  0  0  0  0  0  0  0
   46.7228   36.1040   74.8079 C   0  0  1  0  0  0  0  0  0  0  0  0
   46.5254   34.7704   74.4050 O   0  0  0  0  0  0  0  0  0  0  0  0
   45.4005   36.5242   75.4561 C   0  0  0  0  0  0  0  0  0  0  0  0
   45.6738   35.8886   76.8061 C   0  0  2  0  0  0  0  0  0  0  0  0
   44.6267   36.0828   77.7648 N   0  0  0  0  0  0  0  0  0  0  0  0
   43.7572   35.1358   78.1421 C   0  0  0  0  0  0  0  0  0  0  0  0
   43.8428   33.9922   77.6374 O   0  0  0  0  0  0  0  0  0  0  0  0
   42.7817   35.3459   79.0464 N   0  0  0  0  0  0  0  0  0  0  0  0
   42.6517   36.5621   79.6160 C   0  0  0  0  0  0  0  0  0  0  0  0
   41.7386   36.7900   80.4743 O   0  0  0  0  0  0  0  0  0  0  0  0
   43.5190   37.5800   79.2674 C   0  0  0  0  0  0  0  0  0  0  0  0
   43.4006   38.9312   79.8783 C   0  0  0  0  0  0  0  0  0  0  0  0
   44.5058   37.3000   78.3272 C   0  0  0  0  0  0  0  0  0  0  0  0
  1  2  1  0
  3  2  1  6
  3  4  1  0
  3  5  1  0
  5  6  1  1
  5  7  1  0
  4  8  1  0
  7  8  1  0
  8  9  1  1
  9 10  1  0
 10 11  2  0
 10 12  1  0
 12 13  1  0
 13 14  2  0
 13 15  1  0
 15 16  1  0
  9 17  1  0
 15 17  2  0
M  END
$$$$
