1W2G_THM_B_1210
     RDKit          3D

 17 18  0  0  0  0  0  0  0  0999 V2000
   36.4868   21.2370   71.7567 O   0  0  0  0  0  0  0  0  0  0  0  0
   35.4905   22.1036   71.3627 C   0  0  0  0  0  0  0  0  0  0  0  0
   35.7703   23.5008   71.8457 C   0  0  1  0  0  0  0  0  0  0  0  0
   37.1063   23.5781   72.2660 O   0  0  0  0  0  0  0  0  0  0  0  0
   35.6196   24.4530   70.6870 C   0  0  1  0  0  0  0  0  0  0  0  0
   34.8934   25.5886   71.0905 O   0  0  0  0  0  0  0  0  0  0  0  0
   37.0615   24.9410   70.5191 C   0  0  0  0  0  0  0  0  0  0  0  0
   37.4270   24.8724   71.9897 C   0  0  2  0  0  0  0  0  0  0  0  0
   38.7798   25.2508   72.2726 N   0  0  0  0  0  0  0  0  0  0  0  0
   39.1498   26.4465   72.7506 C   0  0  0  0  0  0  0  0  0  0  0  0
   38.2726   27.3126   72.9747 O   0  0  0  0  0  0  0  0  0  0  0  0
   40.4301   26.7759   73.0078 N   0  0  0  0  0  0  0  0  0  0  0  0
   41.4083   25.8746   72.7815 C   0  0  0  0  0  0  0  0  0  0  0  0
   42.6279   26.1581   73.0154 O   0  0  0  0  0  0  0  0  0  0  0  0
   41.0891   24.6236   72.2886 C   0  0  0  0  0  0  0  0  0  0  0  0
   42.1457   23.6092   72.0292 C   0  0  0  0  0  0  0  0  0  0  0  0
   39.7483   24.3441   72.0433 C   0  0  0  0  0  0  0  0  0  0  0  0
  1  2  1  0
  3  2  1  6
  3  4  1  0
  3  5  1  0
  5  6  1  1
  5  7  1  0
  4  8  1  0
  7  8  1  0
  8  9  1  6
  9 10  1  0
 10 11  2  0
 10 12  1  0
 12 13  1  0
 13 14  2  0
 13 15  1  0
 15 16  1  0
  9 17  1  0
 15 17  2  0
M  END
$$$$
