1W2G_THM_B_1210
     RDKit          3D

 17 18  0  0  0  0  0  0  0  0999 V2000
   46.0646   36.9749   74.8856 O   0  0  0  0  0  0  0  0  0  0  0  0
   45.5584   36.2394   73.8361 C   0  0  0  0  0  0  0  0  0  0  0  0
   44.5620   35.2225   74.3225 C   0  0  1  0  0  0  0  0  0  0  0  0
   43.8559   35.7604   75.4085 O   0  0  0  0  0  0  0  0  0  0  0  0
   43.5566   34.9679   73.2288 C   0  0  1  0  0  0  0  0  0  0  0  0
   43.3221   33.5861   73.1045 O   0  0  0  0  0  0  0  0  0  0  0  0
   42.2827   35.5326   73.8643 C   0  0  0  0  0  0  0  0  0  0  0  0
   42.6376   35.1631   75.2921 C   0  0  2  0  0  0  0  0  0  0  0  0
   41.6567   35.5600   76.2582 N   0  0  0  0  0  0  0  0  0  0  0  0
   41.0198   34.7185   77.0837 C   0  0  0  0  0  0  0  0  0  0  0  0
   41.2809   33.4943   77.0282 O   0  0  0  0  0  0  0  0  0  0  0  0
   40.1012   35.1191   77.9832 N   0  0  0  0  0  0  0  0  0  0  0  0
   39.7882   36.4281   78.0783 C   0  0  0  0  0  0  0  0  0  0  0  0
   38.9233   36.8361   78.9197 O   0  0  0  0  0  0  0  0  0  0  0  0
   40.4117   37.3450   77.2534 C   0  0  0  0  0  0  0  0  0  0  0  0
   40.0875   38.7945   77.3349 C   0  0  0  0  0  0  0  0  0  0  0  0
   41.3517   36.8685   76.3449 C   0  0  0  0  0  0  0  0  0  0  0  0
  1  2  1  0
  3  2  1  6
  3  4  1  0
  3  5  1  0
  5  6  1  1
  5  7  1  0
  4  8  1  0
  7  8  1  0
  8  9  1  1
  9 10  1  0
 10 11  2  0
 10 12  1  0
 12 13  1  0
 13 14  2  0
 13 15  1  0
 15 16  1  0
  9 17  1  0
 15 17  2  0
M  END
$$$$
