1W2G_THM_B_1210
     RDKit          3D

 17 18  0  0  0  0  0  0  0  0999 V2000
   50.3802   22.8765   67.7793 O   0  0  0  0  0  0  0  0  0  0  0  0
   49.0345   22.7711   68.0558 C   0  0  0  0  0  0  0  0  0  0  0  0
   48.3658   24.1176   67.9971 C   0  0  1  0  0  0  0  0  0  0  0  0
   49.2777   25.0975   68.4162 O   0  0  0  0  0  0  0  0  0  0  0  0
   48.0209   24.4249   66.5623 C   0  0  1  0  0  0  0  0  0  0  0  0
   46.7162   24.9457   66.4832 O   0  0  0  0  0  0  0  0  0  0  0  0
   48.9429   25.6166   66.2878 C   0  0  0  0  0  0  0  0  0  0  0  0
   48.8933   26.1855   67.6931 C   0  0  2  0  0  0  0  0  0  0  0  0
   49.6886   27.3637   67.8738 N   0  0  0  0  0  0  0  0  0  0  0  0
   49.1922   28.5914   68.0765 C   0  0  0  0  0  0  0  0  0  0  0  0
   47.9498   28.7490   68.1155 O   0  0  0  0  0  0  0  0  0  0  0  0
   49.9637   29.6826   68.2434 N   0  0  0  0  0  0  0  0  0  0  0  0
   51.3070   29.5604   68.2090 C   0  0  0  0  0  0  0  0  0  0  0  0
   52.0618   30.5747   68.3638 O   0  0  0  0  0  0  0  0  0  0  0  0
   51.8788   28.3192   68.0033 C   0  0  0  0  0  0  0  0  0  0  0  0
   53.3564   28.1533   67.9604 C   0  0  0  0  0  0  0  0  0  0  0  0
   51.0279   27.2308   67.8377 C   0  0  0  0  0  0  0  0  0  0  0  0
  1  2  1  0
  3  2  1  6
  3  4  1  0
  3  5  1  0
  5  6  1  1
  5  7  1  0
  4  8  1  0
  7  8  1  0
  8  9  1  6
  9 10  1  0
 10 11  2  0
 10 12  1  0
 12 13  1  0
 13 14  2  0
 13 15  1  0
 15 16  1  0
  9 17  1  0
 15 17  2  0
M  END
$$$$
