7ZTL_BCN_A_506
     RDKit          3D

 24 23  0  0  0  0  0  0  0  0999 V2000
   -0.0954    0.2760   -0.4154 N   0  0  0  0  0  0  0  0  0  0  0  0
    0.7051    1.1609   -1.2912 C   0  0  0  0  0  0  0  0  0  0  0  0
    1.9908    0.4982   -1.6801 C   0  0  0  0  0  0  0  0  0  0  0  0
    1.9830   -0.4590   -2.4996 O   0  0  0  0  0  0  0  0  0  0  0  0
    3.1910    0.9255   -1.1212 O   0  0  0  0  0  0  0  0  0  0  0  0
   -1.5013    0.7430   -0.3762 C   0  0  0  0  0  0  0  0  0  0  0  0
   -2.4330   -0.3243    0.2032 C   0  0  0  0  0  0  0  0  0  0  0  0
   -3.7642    0.0784    0.0384 O   0  0  0  0  0  0  0  0  0  0  0  0
    0.4967    0.1813    0.9465 C   0  0  0  0  0  0  0  0  0  0  0  0
    0.7150   -1.2842    1.3304 C   0  0  0  0  0  0  0  0  0  0  0  0
    1.6644   -1.8800    0.4883 O   0  0  0  0  0  0  0  0  0  0  0  0
    0.1615    1.3826   -2.2362 H   0  0  0  0  0  0  0  0  0  0  0  0
    0.9086    2.1353   -0.7920 H   0  0  0  0  0  0  0  0  0  0  0  0
    4.0663    0.4789   -1.3668 H   0  0  0  0  0  0  0  0  0  0  0  0
   -1.8629    0.9527   -1.4080 H   0  0  0  0  0  0  0  0  0  0  0  0
   -1.5914    1.6880    0.2063 H   0  0  0  0  0  0  0  0  0  0  0  0
   -2.2655   -1.2874   -0.3293 H   0  0  0  0  0  0  0  0  0  0  0  0
   -2.2263   -0.4639    1.2865 H   0  0  0  0  0  0  0  0  0  0  0  0
   -4.3214   -0.6516    0.4146 H   0  0  0  0  0  0  0  0  0  0  0  0
   -0.1463    0.6597    1.7190 H   0  0  0  0  0  0  0  0  0  0  0  0
    1.4795    0.6996    1.0193 H   0  0  0  0  0  0  0  0  0  0  0  0
    1.0958   -1.3269    2.3727 H   0  0  0  0  0  0  0  0  0  0  0  0
   -0.2440   -1.8483    1.3046 H   0  0  0  0  0  0  0  0  0  0  0  0
    1.1770   -2.1836   -0.3215 H   0  0  0  0  0  0  0  0  0  0  0  0
  1  2  1  0
  2  3  1  0
  3  4  2  0
  3  5  1  0
  1  6  1  0
  6  7  1  0
  7  8  1  0
  1  9  1  0
  9 10  1  0
 10 11  1  0
  2 12  1  0
  2 13  1  0
  5 14  1  0
  6 15  1  0
  6 16  1  0
  7 17  1  0
  7 18  1  0
  8 19  1  0
  9 20  1  0
  9 21  1  0
 10 22  1  0
 10 23  1  0
 11 24  1  0
M  END
