7L03_F9F_A_301
     RDKit          3D

 22 22  0  0  0  0  0  0  0  0999 V2000
  -34.7722   -7.5830   15.2162 C   0  0  0  0  0  0  0  0  0  0  0  0
  -35.9592   -8.2165   14.8790 C   0  0  0  0  0  0  0  0  0  0  0  0
  -37.1556   -7.5343   14.9682 C   0  0  0  0  0  0  0  0  0  0  0  0
  -37.1683   -6.2155   15.3942 C   0  0  0  0  0  0  0  0  0  0  0  0
  -35.9842   -5.5811   15.7317 C   0  0  0  0  0  0  0  0  0  0  0  0
  -34.7878   -6.2633   15.6426 C   0  0  0  0  0  0  0  0  0  0  0  0
  -33.5402   -8.2857   15.1247 O   0  0  0  0  0  0  0  0  0  0  0  0
  -33.4960   -9.3373   14.3166 C   0  0  1  0  0  0  0  0  0  0  0  0
  -34.5413  -10.1221   14.4824 F   0  0  0  0  0  0  0  0  0  0  0  0
  -33.4769   -8.9745   13.0487 F   0  0  0  0  0  0  0  0  0  0  0  0
  -32.4208  -10.0680   14.5297 F   0  0  0  0  0  0  0  0  0  0  0  0
  -38.6958   -5.3448   15.5079 S   0  0  2  0  0  0  0  0  0  0  0  0
  -38.3932   -3.7927   15.1886 N   0  0  0  0  0  0  0  0  0  0  0  0
  -37.7744   -3.4227   13.9088 C   0  0  0  0  0  0  0  0  0  0  0  0
  -37.9682   -1.9583   13.6137 C   0  0  0  0  0  0  0  0  0  0  0  0
  -37.5429   -1.6735   12.2530 O   0  0  0  0  0  0  0  0  0  0  0  0
  -36.6380   -0.3642   11.9829 P   0  0  2  0  0  0  0  0  0  0  0  0
  -37.0978    0.1881   10.6469 O   0  0  0  0  0  0  0  0  0  0  0  0
  -35.2025   -0.8529   11.9559 O   0  0  0  0  0  0  0  0  0  0  0  0
  -36.9190    0.5773   13.1384 O   0  0  0  0  0  0  0  0  0  0  0  0
  -39.1369   -5.4102   16.8680 O   0  0  0  0  0  0  0  0  0  0  0  0
  -39.5517   -5.8235   14.4665 O   0  0  0  0  0  0  0  0  0  0  0  0
  1  2  2  0
  2  3  1  0
  3  4  2  0
  4  5  1  0
  1  6  1  0
  5  6  2  0
  1  7  1  0
  7  8  1  0
  8  9  1  6
  8 10  1  0
  8 11  1  0
  4 12  1  0
 12 13  1  6
 13 14  1  0
 14 15  1  0
 15 16  1  0
 16 17  1  0
 17 18  1  6
 17 19  2  0
 17 20  1  0
 12 21  2  0
 12 22  2  0
M  END
