7ZZW_KKW_B_610
     RDKit          3D

 29 33  0  0  0  0  0  0  0  0999 V2000
   42.8044  -29.6924   21.9419 C   0  0  0  0  0  0  0  0  0  0  0  0
   42.7447  -28.7509   22.9999 C   0  0  0  0  0  0  0  0  0  0  0  0
   35.5362  -28.9019   29.2405 C   0  0  0  0  0  0  0  0  0  0  0  0
   41.6006  -28.8204   23.7391 C   0  0  0  0  0  0  0  0  0  0  0  0
   43.6647  -27.8352   23.3304 C   0  0  0  0  0  0  0  0  0  0  0  0
   43.4202  -27.0137   24.3881 C   0  0  0  0  0  0  0  0  0  0  0  0
   36.7686  -29.6772   28.8863 C   0  0  2  0  0  0  0  0  0  0  0  0
   34.1412  -29.1698   31.1988 C   0  0  0  0  0  0  0  0  0  0  0  0
   32.1725  -30.5115   31.1801 C   0  0  0  0  0  0  0  0  0  0  0  0
   31.4893  -29.6043   31.9595 C   0  0  0  0  0  0  0  0  0  0  0  0
   35.5487  -28.9736   30.7754 C   0  0  1  0  0  0  0  0  0  0  0  0
   32.1657  -28.4678   32.3526 C   0  0  0  0  0  0  0  0  0  0  0  0
   33.4800  -28.2373   31.9843 C   0  0  0  0  0  0  0  0  0  0  0  0
   37.2205  -30.2987   25.1297 C   0  0  0  0  0  0  0  0  0  0  0  0
   38.3326  -30.6692   24.2045 C   0  0  0  0  0  0  0  0  0  0  0  0
   39.2864  -28.6934   25.3943 C   0  0  0  0  0  0  0  0  0  0  0  0
   38.9701  -29.4845   26.6753 C   0  0  0  0  0  0  0  0  0  0  0  0
   40.5689  -29.7009   23.5238 C   0  0  0  0  0  0  0  0  0  0  0  0
   41.7576  -30.5595   21.7517 C   0  0  0  0  0  0  0  0  0  0  0  0
   36.4219  -30.1716   31.0606 C   0  0  0  0  0  0  0  0  0  0  0  0
   36.7121  -30.2697   27.5238 C   0  0  0  0  0  0  0  0  0  0  0  0
   33.4951  -30.3133   30.7901 C   0  0  0  0  0  0  0  0  0  0  0  0
   36.6186  -30.8359   29.7925 N   0  0  0  0  0  0  0  0  0  0  0  0
   37.6397  -30.0114   26.4909 N   0  0  0  0  0  0  0  0  0  0  0  0
   39.4081  -29.7135   24.3416 N   0  0  0  0  0  0  0  0  0  0  0  0
   40.6510  -30.5986   22.4971 N   0  0  0  0  0  0  0  0  0  0  0  0
   35.7240  -31.0690   27.3325 O   0  0  0  0  0  0  0  0  0  0  0  0
   41.7308  -27.5602   25.0020 S   0  0  0  0  0  0  0  0  0  0  0  0
   31.2952  -31.9662   30.6813 Cl  0  0  0  0  0  0  0  0  0  0  0  0
  1  2  2  0
  2  4  1  0
  2  5  1  0
  5  6  2  0
  3  7  1  0
  9 10  2  0
 11  8  1  6
  3 11  1  0
 10 12  1  0
 12 13  2  0
  8 13  1  0
 14 15  1  0
 16 17  1  0
  4 18  2  0
  1 19  1  0
 11 20  1  0
  7 21  1  6
  9 22  1  0
  8 22  2  0
 20 23  1  0
  7 23  1  0
 17 24  1  0
 14 24  1  0
 21 24  1  0
 16 25  1  0
 15 25  1  0
 18 25  1  0
 18 26  1  0
 19 26  2  0
 21 27  2  0
  6 28  1  0
  4 28  1  0
  9 29  1  0
M  END
$$$$
