7BHX_TO5_A_402
     RDKit          3D

 21 23  0  0  0  0  0  0  0  0999 V2000
   37.2284   49.0361   36.4355 C   0  0  0  0  0  0  0  0  0  0  0  0
   36.5196   46.9915   35.1398 C   0  0  0  0  0  0  0  0  0  0  0  0
   36.3508   45.2612   33.5819 C   0  0  0  0  0  0  0  0  0  0  0  0
   33.2684   44.1099   29.8543 C   0  0  0  0  0  0  0  0  0  0  0  0
   34.7224   45.6349   30.7564 C   0  0  0  0  0  0  0  0  0  0  0  0
   34.4849   46.8299   33.8489 C   0  0  0  0  0  0  0  0  0  0  0  0
   33.1886   47.2243   33.5183 C   0  0  0  0  0  0  0  0  0  0  0  0
   32.5785   48.2272   34.2518 C   0  0  0  0  0  0  0  0  0  0  0  0
   33.2189   48.8467   35.3080 C   0  0  0  0  0  0  0  0  0  0  0  0
   34.5043   48.4517   35.6482 C   0  0  0  0  0  0  0  0  0  0  0  0
   35.1524   47.4453   34.9248 C   0  0  0  0  0  0  0  0  0  0  0  0
   30.9683   48.7321   33.8212 Cl  0  0  0  0  0  0  0  0  0  0  0  0
   37.4399   47.6877   35.8641 N   0  0  0  0  0  0  0  0  0  0  0  0
   38.8175   47.2124   35.9896 C   0  0  0  0  0  0  0  0  0  0  0  0
   35.1293   45.8075   33.1395 N   0  0  0  0  0  0  0  0  0  0  0  0
   36.7622   44.2455   33.0331 O   0  0  0  0  0  0  0  0  0  0  0  0
   37.0328   45.8829   34.5924 N   0  0  0  0  0  0  0  0  0  0  0  0
   34.4662   45.1954   32.0247 C   0  0  0  0  0  0  0  0  0  0  0  0
   34.1422   45.1128   29.6730 N   0  0  0  0  0  0  0  0  0  0  0  0
   32.9549   43.5892   31.0929 C   0  0  0  0  0  0  0  0  0  0  0  0
   33.5651   44.1454   32.2078 C   0  0  0  0  0  0  0  0  0  0  0  0
  6  7  2  0
  7  8  1  0
  8  9  2  0
  9 10  1  0
  2 11  1  0
 10 11  2  0
  6 11  1  0
  8 12  1  0
  1 13  1  0
  2 13  1  0
 13 14  1  0
  3 15  1  0
  6 15  1  0
  3 16  2  0
  2 17  2  0
  3 17  1  0
 15 18  1  0
  5 18  2  0
  5 19  1  0
  4 19  2  0
  4 20  1  0
 18 21  1  0
 20 21  2  0
M  END
