7XI7_4RI_A_201
     RDKit          3D

 42 43  0  0  0  0  0  0  0  0999 V2000
   -2.3396  -15.4531    2.3258 C   0  0  0  0  0  0  0  0  0  0  0  0
   -3.3379  -15.9211    1.4400 C   0  0  0  0  0  0  0  0  0  0  0  0
   -3.8849  -17.2010    1.6763 C   0  0  0  0  0  0  0  0  0  0  0  0
   -3.4385  -17.9381    2.7265 N   0  0  0  0  0  0  0  0  0  0  0  0
   -1.9378  -16.2458    3.3546 N   0  0  0  0  0  0  0  0  0  0  0  0
   -0.7640  -11.4102   -2.0026 C   0  0  1  0  0  0  0  0  0  0  0  0
   -1.0147  -12.2892   -0.7807 C   0  0  1  0  0  0  0  0  0  0  0  0
   -1.4797  -13.6907   -1.1924 C   0  0  1  0  0  0  0  0  0  0  0  0
   -0.8968  -14.7587   -0.2557 C   0  0  1  0  0  0  0  0  0  0  0  0
   -0.4957  -14.1929    1.1189 C   0  0  1  0  0  0  0  0  0  0  0  0
   -1.6432  -14.1257    2.1425 C   0  0  1  0  0  0  0  0  0  0  0  0
   -2.4758  -17.4730    3.5606 C   0  0  0  0  0  0  0  0  0  0  0  0
   -2.0262  -18.2751    4.6499 N   0  0  0  0  0  0  0  0  0  0  0  0
   -4.9166  -17.7434    0.8445 N   0  0  0  0  0  0  0  0  0  0  0  0
   -3.7932  -15.1061    0.2938 C   0  0  0  0  0  0  0  0  0  0  0  0
   -2.8916  -14.7556   -0.7234 C   0  0  0  0  0  0  0  0  0  0  0  0
   -3.3238  -13.9917   -1.8117 C   0  0  0  0  0  0  0  0  0  0  0  0
   -4.6576  -13.5806   -1.8932 C   0  0  0  0  0  0  0  0  0  0  0  0
   -5.5616  -13.9351   -0.8875 C   0  0  0  0  0  0  0  0  0  0  0  0
   -5.1331  -14.6990    0.2024 C   0  0  0  0  0  0  0  0  0  0  0  0
   -1.7064  -11.2636   -2.5723 H   0  0  0  0  0  0  0  0  0  0  0  0
   -0.3655  -10.4212   -1.6913 H   0  0  0  0  0  0  0  0  0  0  0  0
   -0.0203  -11.8995   -2.6663 H   0  0  0  0  0  0  0  0  0  0  0  0
   -0.0740  -12.3632   -0.1925 H   0  0  0  0  0  0  0  0  0  0  0  0
   -1.7908  -11.8088   -0.1456 H   0  0  0  0  0  0  0  0  0  0  0  0
   -2.5892  -13.7234   -1.1536 H   0  0  0  0  0  0  0  0  0  0  0  0
   -1.1532  -13.8955   -2.2358 H   0  0  0  0  0  0  0  0  0  0  0  0
   -1.6647  -15.5452   -0.0869 H   0  0  0  0  0  0  0  0  0  0  0  0
   -0.0237  -15.2506   -0.7362 H   0  0  0  0  0  0  0  0  0  0  0  0
    0.3238  -14.8131    1.5427 H   0  0  0  0  0  0  0  0  0  0  0  0
   -0.0806  -13.1743    0.9708 H   0  0  0  0  0  0  0  0  0  0  0  0
   -2.3713  -13.3542    1.8178 H   0  0  0  0  0  0  0  0  0  0  0  0
   -1.2514  -13.7715    3.1196 H   0  0  0  0  0  0  0  0  0  0  0  0
   -2.6966  -18.8822    5.1716 H   0  0  0  0  0  0  0  0  0  0  0  0
   -1.0216  -18.2644    4.9344 H   0  0  0  0  0  0  0  0  0  0  0  0
   -5.1741  -18.7518    0.9284 H   0  0  0  0  0  0  0  0  0  0  0  0
   -5.4500  -17.1590    0.1644 H   0  0  0  0  0  0  0  0  0  0  0  0
   -1.8563  -15.0694   -0.6686 H   0  0  0  0  0  0  0  0  0  0  0  0
   -2.6253  -13.7189   -2.5922 H   0  0  0  0  0  0  0  0  0  0  0  0
   -4.9908  -12.9895   -2.7364 H   0  0  0  0  0  0  0  0  0  0  0  0
   -6.5947  -13.6193   -0.9535 H   0  0  0  0  0  0  0  0  0  0  0  0
   -5.8420  -14.9725    0.9744 H   0  0  0  0  0  0  0  0  0  0  0  0
  1  2  2  0
  2  3  1  0
  3  4  2  0
  1  5  1  0
  6  7  1  0
  7  8  1  0
  8  9  1  0
  9 10  1  0
 10 11  1  0
  1 11  1  0
  5 12  2  0
  4 12  1  0
 12 13  1  0
  3 14  1  0
  2 15  1  0
 15 16  2  0
 16 17  1  0
 17 18  2  0
 18 19  1  0
 15 20  1  0
 19 20  2  0
  6 21  1  6
  6 22  1  0
  6 23  1  0
  7 24  1  1
  7 25  1  0
  8 26  1  6
  8 27  1  0
  9 28  1  1
  9 29  1  0
 10 30  1  1
 10 31  1  0
 11 32  1  6
 11 33  1  0
 13 34  1  0
 13 35  1  0
 14 36  1  0
 14 37  1  0
 16 38  1  0
 17 39  1  0
 18 40  1  0
 19 41  1  0
 20 42  1  0
M  END
