7R6J_2I7_B_901
     RDKit          3D

 33 36  0  0  0  0  0  0  0  0999 V2000
   -7.2780  -40.0050  -32.7770 N   0  0  0  0  0  0  0  0  0  0  0  0
   -9.7930  -34.4940  -37.6740 N   0  0  0  0  0  0  0  0  0  0  0  0
   -6.1330  -40.2970  -33.6930 C   0  0  0  0  0  0  0  0  0  0  0  0
   -7.9940  -41.2530  -32.4640 C   0  0  2  0  0  0  0  0  0  0  0  0
   -9.1880  -41.0430  -31.4370 C   0  0  0  0  0  0  0  0  0  0  0  0
   -7.9860  -39.0060  -33.1800 C   0  0  0  0  0  0  0  0  0  0  0  0
   -8.7540  -39.2120  -34.5880 C   0  0  0  0  0  0  0  0  0  0  0  0
   -8.9240  -39.2170  -37.0160 C   0  0  0  0  0  0  0  0  0  0  0  0
   -5.3280  -36.8470  -38.6490 C   0  0  0  0  0  0  0  0  0  0  0  0
   -3.5540  -35.0810  -38.9400 C   0  0  0  0  0  0  0  0  0  0  0  0
   -7.3660  -34.9770  -37.9740 C   0  0  0  0  0  0  0  0  0  0  0  0
  -10.7120  -32.4030  -37.0300 C   0  0  0  0  0  0  0  0  0  0  0  0
   -9.4270  -31.9230  -36.9630 C   0  0  0  0  0  0  0  0  0  0  0  0
   -7.6450  -36.3460  -38.0260 C   0  0  0  0  0  0  0  0  0  0  0  0
  -10.7790  -40.0090  -35.7510 C   0  0  0  0  0  0  0  0  0  0  0  0
   -6.9890  -42.2610  -31.8040 C   0  0  2  0  0  0  0  0  0  0  0  0
   -8.3870  -38.9530  -38.4380 C   0  0  0  0  0  0  0  0  0  0  0  0
   -6.6190  -37.2590  -38.3450 C   0  0  0  0  0  0  0  0  0  0  0  0
   -5.0310  -35.4860  -38.6130 C   0  0  0  0  0  0  0  0  0  0  0  0
   -6.0600  -34.5480  -38.2800 C   0  0  0  0  0  0  0  0  0  0  0  0
   -8.5690  -34.0190  -37.6090 C   0  0  0  0  0  0  0  0  0  0  0  0
  -10.8790  -33.7450  -37.4020 C   0  0  0  0  0  0  0  0  0  0  0  0
   -5.8170  -42.4940  -32.6760 C   0  0  1  0  0  0  0  0  0  0  0  0
  -10.2210  -39.7120  -36.9630 C   0  0  0  0  0  0  0  0  0  0  0  0
  -10.0300  -39.7420  -34.5610 C   0  0  0  0  0  0  0  0  0  0  0  0
   -5.1250  -41.2240  -32.9450 C   0  0  1  0  0  0  0  0  0  0  0  0
   -8.1730  -38.9370  -35.8220 C   0  0  0  0  0  0  0  0  0  0  0  0
   -6.9570  -38.6720  -38.3860 N   0  0  0  0  0  0  0  0  0  0  0  0
   -8.3880  -32.7390  -37.2590 N   0  0  0  0  0  0  0  0  0  0  0  0
   -7.6900  -43.4930  -31.5730 O   0  0  0  0  0  0  0  0  0  0  0  0
   -4.9590  -43.4220  -31.8920 O   0  0  0  0  0  0  0  0  0  0  0  0
   -3.9760  -41.4620  -33.8220 O   0  0  0  0  0  0  0  0  0  0  0  0
   -8.7630  -40.3000  -30.3830 O   0  0  0  0  0  0  0  0  0  0  0  0
  1  3  1  0
  1  4  1  0
  4  5  1  1
  1  6  1  0
  6  7  1  0
 12 13  1  0
 11 14  2  0
  4 16  1  0
  8 17  1  0
 14 18  1  0
  9 18  2  0
  9 19  1  0
 10 19  1  0
 11 20  1  0
 19 20  2  0
  2 21  2  0
 11 21  1  0
 12 22  2  0
  2 22  1  0
 16 23  1  0
  8 24  1  0
 15 24  2  0
  7 25  2  0
 15 25  1  0
 23 26  1  0
  3 26  1  0
  7 27  1  0
  8 27  2  0
 17 28  1  0
 18 28  1  0
 13 29  2  0
 21 29  1  0
 16 30  1  6
 23 31  1  1
 26 32  1  6
  5 33  1  0
M  END
$$$$
