7KRU_ATP_A_607
     RDKit          3D

 31 33  0  0  0  0  0  0  0  0999 V2000
   50.9220   42.3920  208.1620 P   0  0  0  0  0  0  0  0  0  0  0  0
   52.4230   42.4170  208.0440 O   0  0  0  0  0  0  0  0  0  0  0  0
   50.2560   43.7380  208.0060 O   0  0  0  0  0  0  0  0  0  0  0  0
   50.3600   41.5710  209.2660 O   0  0  0  0  0  0  0  0  0  0  0  0
   50.4790   41.9820  205.2950 P   0  0  1  0  0  0  0  0  0  0  0  0
   50.5530   43.4820  205.1760 O   0  0  0  0  0  0  0  0  0  0  0  0
   51.5230   41.1620  204.5580 O   0  0  0  0  0  0  0  0  0  0  0  0
   50.4340   41.5300  206.8540 O   0  0  0  0  0  0  0  0  0  0  0  0
   48.2250   41.9770  203.5450 P   0  0  2  0  0  0  0  0  0  0  0  0
   49.0490   41.7270  202.3000 O   0  0  0  0  0  0  0  0  0  0  0  0
   47.6870   43.3610  203.8430 O   0  0  0  0  0  0  0  0  0  0  0  0
   49.0180   41.4310  204.8430 O   0  0  0  0  0  0  0  0  0  0  0  0
   46.9970   40.9400  203.5900 O   0  0  0  0  0  0  0  0  0  0  0  0
   47.2310   39.5210  203.4940 C   0  0  0  0  0  0  0  0  0  0  0  0
   46.0550   38.7310  204.0590 C   0  0  1  0  0  0  0  0  0  0  0  0
   44.8620   39.1510  203.3840 O   0  0  0  0  0  0  0  0  0  0  0  0
   46.1850   37.2260  203.8480 C   0  0  1  0  0  0  0  0  0  0  0  0
   45.7330   36.5580  205.0200 O   0  0  0  0  0  0  0  0  0  0  0  0
   45.2760   36.9470  202.6580 C   0  0  1  0  0  0  0  0  0  0  0  0
   44.7460   35.6200  202.6550 O   0  0  0  0  0  0  0  0  0  0  0  0
   44.2000   38.0040  202.8610 C   0  0  2  0  0  0  0  0  0  0  0  0
   43.5320   38.4370  201.6230 N   0  0  0  0  0  0  0  0  0  0  0  0
   44.1150   38.9230  200.5040 C   0  0  0  0  0  0  0  0  0  0  0  0
   43.1700   39.2440  199.5660 N   0  0  0  0  0  0  0  0  0  0  0  0
   41.9710   38.9510  200.1280 C   0  0  0  0  0  0  0  0  0  0  0  0
   40.5670   39.0440  199.7020 C   0  0  0  0  0  0  0  0  0  0  0  0
   40.2780   39.5240  198.4690 N   0  0  0  0  0  0  0  0  0  0  0  0
   39.6280   38.6350  200.5650 N   0  0  0  0  0  0  0  0  0  0  0  0
   39.9190   38.1580  201.7830 C   0  0  0  0  0  0  0  0  0  0  0  0
   41.1730   38.0550  202.2410 N   0  0  0  0  0  0  0  0  0  0  0  0
   42.2120   38.4210  201.4650 C   0  0  0  0  0  0  0  0  0  0  0  0
  1  2  2  0
  1  3  1  0
  1  4  1  0
  5  6  2  0
  5  7  1  6
  1  8  1  0
  5  8  1  0
  9 10  2  0
  9 11  1  1
  5 12  1  0
  9 12  1  0
  9 13  1  0
 13 14  1  0
 15 14  1  6
 15 16  1  0
 15 17  1  0
 17 18  1  1
 17 19  1  0
 19 20  1  1
 16 21  1  0
 19 21  1  0
 21 22  1  6
 22 23  1  0
 23 24  2  0
 24 25  1  0
 25 26  1  0
 26 27  1  0
 26 28  2  0
 28 29  1  0
 29 30  2  0
 22 31  1  0
 25 31  2  0
 30 31  1  0
M  END
$$$$
7KRU_ATP_B_609
     RDKit          3D

 31 33  0  0  0  0  0  0  0  0999 V2000
   46.2480   42.5590  173.2970 P   0  0  0  0  0  0  0  0  0  0  0  0
   46.9910   43.8540  173.4510 O   0  0  0  0  0  0  0  0  0  0  0  0
   46.8240   41.6560  172.2550 O   0  0  0  0  0  0  0  0  0  0  0  0
   44.7520   42.6210  173.3020 O   0  0  0  0  0  0  0  0  0  0  0  0
   46.5550   42.1870  176.1790 P   0  0  1  0  0  0  0  0  0  0  0  0
   46.5420   43.6780  176.2910 O   0  0  0  0  0  0  0  0  0  0  0  0
   45.4430   41.3840  176.8270 O   0  0  0  0  0  0  0  0  0  0  0  0
   46.6640   41.7120  174.6340 O   0  0  0  0  0  0  0  0  0  0  0  0
   48.8280   42.1920  177.9370 P   0  0  2  0  0  0  0  0  0  0  0  0
   48.0350   42.0030  179.1900 O   0  0  0  0  0  0  0  0  0  0  0  0
   49.4510   43.5400  177.6880 O   0  0  0  0  0  0  0  0  0  0  0  0
   47.9920   41.6540  176.6670 O   0  0  0  0  0  0  0  0  0  0  0  0
   50.0110   41.1260  177.8910 O   0  0  0  0  0  0  0  0  0  0  0  0
   49.7500   39.7450  178.0860 C   0  0  0  0  0  0  0  0  0  0  0  0
   50.9650   38.9730  177.5990 C   0  0  1  0  0  0  0  0  0  0  0  0
   52.1280   39.3970  178.3110 O   0  0  0  0  0  0  0  0  0  0  0  0
   50.8220   37.4790  177.8130 C   0  0  1  0  0  0  0  0  0  0  0  0
   51.4060   36.7650  176.7100 O   0  0  0  0  0  0  0  0  0  0  0  0
   51.6290   37.1960  179.0670 C   0  0  1  0  0  0  0  0  0  0  0  0
   52.1170   35.8530  179.0880 O   0  0  0  0  0  0  0  0  0  0  0  0
   52.7260   38.2310  178.8980 C   0  0  2  0  0  0  0  0  0  0  0  0
   53.3880   38.6670  180.1410 N   0  0  0  0  0  0  0  0  0  0  0  0
   52.8030   39.1820  181.2420 C   0  0  0  0  0  0  0  0  0  0  0  0
   53.7580   39.4940  182.1530 N   0  0  0  0  0  0  0  0  0  0  0  0
   54.9620   39.1640  181.6120 C   0  0  0  0  0  0  0  0  0  0  0  0
   56.3780   39.2250  182.0310 C   0  0  0  0  0  0  0  0  0  0  0  0
   56.6800   39.7150  183.2500 N   0  0  0  0  0  0  0  0  0  0  0  0
   57.3390   38.7940  181.1880 N   0  0  0  0  0  0  0  0  0  0  0  0
   57.0210   38.3090  179.9720 C   0  0  0  0  0  0  0  0  0  0  0  0
   55.7570   38.2130  179.5200 N   0  0  0  0  0  0  0  0  0  0  0  0
   54.7060   38.6250  180.2840 C   0  0  0  0  0  0  0  0  0  0  0  0
  1  2  2  0
  1  3  1  0
  1  4  1  0
  5  6  2  0
  5  7  1  1
  1  8  1  0
  5  8  1  0
  9 10  2  0
  9 11  1  6
  5 12  1  0
  9 12  1  0
  9 13  1  0
 13 14  1  0
 15 14  1  1
 15 16  1  0
 15 17  1  0
 17 18  1  6
 17 19  1  0
 19 20  1  6
 16 21  1  0
 19 21  1  0
 21 22  1  1
 22 23  1  0
 23 24  2  0
 24 25  1  0
 25 26  1  0
 26 27  1  0
 26 28  2  0
 28 29  1  0
 29 30  2  0
 22 31  1  0
 25 31  2  0
 30 31  1  0
M  END
$$$$
