
     RDKit          3D

 14 13  0  0  0  0  0  0  0  0999 V2000
    0.7332  -19.8357  -22.0890 O   0  0  0  0  0  0  0  0  0  0  0  0
    0.1489  -20.5420  -20.7838 P   0  0  2  0  0  5  0  0  0  0  0  0
   -0.5386  -21.8162  -21.4586 O   0  0  0  0  0  0  0  0  0  0  0  0
   -0.7648  -19.7139  -19.9512 O   0  0  0  0  0  0  0  0  0  0  0  0
    1.4395  -21.1814  -20.0870 O   0  0  0  0  0  0  0  0  0  0  0  0
    1.2858  -21.9118  -18.8840 C   0  0  0  0  0  0  0  0  0  0  0  0
    2.0320  -21.2192  -17.7435 C   0  0  0  0  0  0  0  0  0  0  0  0
    1.3797  -19.9252  -17.1982 C   0  0  1  0  0  0  0  0  0  0  0  0
    1.6333  -18.8652  -18.1519 O   0  0  0  0  0  0  0  0  0  0  0  0
   -0.1458  -20.1028  -17.1344 C   0  0  0  0  0  0  0  0  0  0  0  0
    1.9249  -19.4248  -15.8498 C   0  0  0  0  0  0  0  0  0  0  0  0
    3.3526  -19.7980  -15.5583 C   0  0  0  0  0  0  0  0  0  0  0  0
    4.2231  -19.0538  -16.2674 O   0  0  0  0  0  0  0  0  0  0  0  0
    3.7524  -20.6716  -14.8094 O   0  0  0  0  0  0  0  0  0  0  0  0
  1  2  1  0
  2  3  1  0
  2  4  2  0
  2  5  1  0
  5  6  1  0
  6  7  1  0
  7  8  1  0
  8  9  1  0
  8 10  1  1
  8 11  1  0
 11 12  1  0
 12 13  1  0
 12 14  2  0
M  END
