7LOE_Y84_A_201
     RDKit          3D

 11 12  0  0  0  0  0  0  0  0999 V2000
   40.8681  -18.9107   10.4925 C   0  0  0  0  0  0  0  0  0  0  0  0
   42.5843  -19.7370   11.9446 C   0  0  0  0  0  0  0  0  0  0  0  0
   42.9645  -20.4046   13.0991 C   0  0  0  0  0  0  0  0  0  0  0  0
   41.9824  -20.9005   13.9331 C   0  0  0  0  0  0  0  0  0  0  0  0
   40.6331  -20.7659   13.6765 C   0  0  0  0  0  0  0  0  0  0  0  0
   40.2766  -20.0912   12.5103 C   0  0  0  0  0  0  0  0  0  0  0  0
   38.9386  -19.9261   12.2016 C   0  0  0  0  0  0  0  0  0  0  0  0
   38.5365  -19.2662   11.0599 C   0  0  0  0  0  0  0  0  0  0  0  0
   39.5201  -18.7710   10.2272 C   0  0  0  0  0  0  0  0  0  0  0  0
   41.2419  -19.5856   11.6594 C   0  0  0  0  0  0  0  0  0  0  0  0
   43.5582  -19.2544   11.1334 F   0  0  0  0  0  0  0  0  0  0  0  0
  2  3  2  0
  3  4  1  0
  4  5  2  0
  5  6  1  0
  6  7  1  0
  7  8  2  0
  8  9  1  0
  1  9  2  0
  6 10  2  0
  2 10  1  0
  1 10  1  0
  2 11  1  0
M  END
$$$$
