7EPV_FDA_A_401
     RDKit          3D

 88 93  0  0  0  0  0  0  0  0999 V2000
    9.0408  -27.8517  -13.1696 P   0  0  1  0  0  5  0  0  0  0  0  0
    8.3830  -29.1133  -13.5128 O   0  0  0  0  0  0  0  0  0  0  0  0
    8.2673  -26.6471  -13.3943 O   0  0  0  0  0  0  0  0  0  0  0  0
    9.5610  -27.8798  -11.6815 O   0  0  0  0  0  0  0  0  0  0  0  0
    9.1203  -28.8911  -10.7765 C   0  0  0  0  0  0  0  0  0  0  0  0
    8.4254  -29.9709  -11.5625 C   0  0  2  0  0  0  0  0  0  0  0  0
    7.5894  -29.3998  -12.5898 O   0  0  0  0  0  0  0  0  0  0  0  0
    7.5346  -30.8945  -10.7220 C   0  0  2  0  0  0  0  0  0  0  0  0
    7.7590  -32.2544  -11.0223 O   0  0  0  0  0  0  0  0  0  0  0  0
    6.1232  -30.3869  -11.0668 C   0  0  2  0  0  0  0  0  0  0  0  0
    5.1549  -31.3832  -10.9311 O   0  0  0  0  0  0  0  0  0  0  0  0
    6.2979  -29.9554  -12.5176 C   0  0  1  0  0  0  0  0  0  0  0  0
    5.3531  -28.9764  -13.0113 N   0  0  0  0  0  4  0  0  0  0  0  0
    4.0565  -28.8050  -12.6453 C   0  0  0  0  0  0  0  0  0  0  0  0
    3.4804  -27.7739  -13.2145 N   0  0  0  0  0  0  0  0  0  0  0  0
    4.4830  -27.2078  -13.9781 C   0  0  0  0  0  0  0  0  0  0  0  0
    4.5290  -26.0786  -14.8153 C   0  0  0  0  0  0  0  0  0  0  0  0
    3.5022  -25.2672  -15.0106 N   0  0  0  0  0  0  0  0  0  0  0  0
    5.7061  -25.7900  -15.3998 N   0  0  0  0  0  0  0  0  0  0  0  0
    6.7498  -26.5824  -15.1762 C   0  0  0  0  0  0  0  0  0  0  0  0
    6.8093  -27.6721  -14.4312 N   0  0  0  0  0  0  0  0  0  0  0  0
    5.6416  -27.9356  -13.8470 C   0  0  0  0  0  0  0  0  0  0  0  0
    5.5460  -25.8619  -12.9934 N   0  0  0  0  0  4  0  0  0  0  0  0
    4.3985  -26.4220  -12.7538 C   0  0  0  0  0  0  0  0  0  0  0  0
    3.7795  -26.1293  -11.7750 O   0  0  0  0  0  0  0  0  0  0  0  0
    3.8840  -27.3779  -13.5857 N   0  0  0  0  0  4  0  0  0  0  0  0
    4.5309  -27.7736  -14.7326 C   0  0  0  0  0  0  0  0  0  0  0  0
    4.0490  -28.6336  -15.4454 O   0  0  0  0  0  0  0  0  0  0  0  0
    5.7236  -27.1495  -15.0395 C   0  0  0  0  0  0  0  0  0  0  0  0
    6.3496  -27.4713  -16.1270 N   0  0  0  0  0  0  0  0  0  0  0  0
    7.4864  -26.7805  -16.4252 C   0  0  0  0  0  0  0  0  0  0  0  0
    8.1471  -27.0626  -17.6323 C   0  0  0  0  0  0  0  0  0  0  0  0
    9.2695  -26.3739  -17.9999 C   0  0  0  0  0  0  0  0  0  0  0  0
    9.9429  -26.6588  -19.3186 C   0  0  0  0  0  0  0  0  0  0  0  0
    9.8100  -25.4058  -17.1207 C   0  0  0  0  0  0  0  0  0  0  0  0
   11.0648  -24.6649  -17.4800 C   0  0  0  0  0  0  0  0  0  0  0  0
    9.2025  -25.1644  -15.9067 C   0  0  0  0  0  0  0  0  0  0  0  0
    8.0240  -25.8241  -15.5453 C   0  0  0  0  0  0  0  0  0  0  0  0
    7.3463  -25.5706  -14.3602 N   0  0  0  0  0  0  0  0  0  0  0  0
    6.1747  -26.1712  -14.0911 C   0  0  0  0  0  0  0  0  0  0  0  0
    7.8267  -24.5676  -13.4056 C   0  0  0  0  0  0  0  0  0  0  0  0
    9.0477  -23.8374  -13.9554 C   0  0  1  0  0  0  0  0  0  0  0  0
    8.6761  -22.5746  -14.4272 O   0  0  0  0  0  0  0  0  0  0  0  0
   10.1251  -23.7363  -12.8685 C   0  0  1  0  0  0  0  0  0  0  0  0
   10.2549  -22.4291  -12.3917 O   0  0  0  0  0  0  0  0  0  0  0  0
    9.9245  -24.6341  -11.6571 C   0  0  1  0  0  0  0  0  0  0  0  0
    8.5632  -24.6476  -11.2512 O   0  0  0  0  0  0  0  0  0  0  0  0
   10.3703  -26.0441  -11.9828 C   0  0  0  0  0  0  0  0  0  0  0  0
   11.4552  -25.9608  -12.8590 O   0  0  0  0  0  0  0  0  0  0  0  0
   11.4254  -26.6981  -14.2434 P   0  0  2  0  0  5  0  0  0  0  0  0
   12.7300  -27.2998  -14.3773 O   0  0  0  0  0  0  0  0  0  0  0  0
   10.9272  -25.8065  -15.2733 O   0  0  0  0  0  0  0  0  0  0  0  0
   10.3497  -27.8178  -14.0353 O   0  0  0  0  0  0  0  0  0  0  0  0
    7.4607  -26.6757  -12.8562 H   0  0  0  0  0  0  0  0  0  0  0  0
    9.9617  -29.3053  -10.2613 H   0  0  0  0  0  0  0  0  0  0  0  0
    8.4467  -28.4707  -10.0592 H   0  0  0  0  0  0  0  0  0  0  0  0
    9.2235  -30.5547  -11.9711 H   0  0  0  0  0  0  0  0  0  0  0  0
    7.7240  -30.8602   -9.6694 H   0  0  0  0  0  0  0  0  0  0  0  0
    7.6132  -32.4046  -11.9694 H   0  0  0  0  0  0  0  0  0  0  0  0
    5.7768  -29.6078  -10.4203 H   0  0  0  0  0  0  0  0  0  0  0  0
    5.3897  -32.1405  -11.4900 H   0  0  0  0  0  0  0  0  0  0  0  0
    6.1337  -30.8174  -13.1300 H   0  0  0  0  0  0  0  0  0  0  0  0
    3.5703  -29.4279  -11.9815 H   0  0  0  0  0  0  0  0  0  0  0  0
    2.6334  -25.4628  -14.5908 H   0  0  0  0  0  0  0  0  0  0  0  0
    3.6070  -24.4679  -15.5758 H   0  0  0  0  0  0  0  0  0  0  0  0
    7.6280  -26.3111  -15.6456 H   0  0  0  0  0  0  0  0  0  0  0  0
    5.9325  -25.2167  -12.3580 H   0  0  0  0  0  0  0  0  0  0  0  0
    3.0228  -27.7961  -13.3559 H   0  0  0  0  0  0  0  0  0  0  0  0
    6.0172  -28.1872  -16.7155 H   0  0  0  0  0  0  0  0  0  0  0  0
    7.7794  -27.8017  -18.2517 H   0  0  0  0  0  0  0  0  0  0  0  0
    9.3952  -27.4136  -19.8432 H   0  0  0  0  0  0  0  0  0  0  0  0
    9.9699  -25.7647  -19.9058 H   0  0  0  0  0  0  0  0  0  0  0  0
   10.9416  -27.0003  -19.1427 H   0  0  0  0  0  0  0  0  0  0  0  0
   11.3962  -24.9738  -18.4494 H   0  0  0  0  0  0  0  0  0  0  0  0
   10.8679  -23.6132  -17.4888 H   0  0  0  0  0  0  0  0  0  0  0  0
   11.8249  -24.8795  -16.7580 H   0  0  0  0  0  0  0  0  0  0  0  0
    9.6247  -24.4855  -15.2541 H   0  0  0  0  0  0  0  0  0  0  0  0
    7.0475  -23.8581  -13.2205 H   0  0  0  0  0  0  0  0  0  0  0  0
    8.1031  -25.0626  -12.4982 H   0  0  0  0  0  0  0  0  0  0  0  0
    9.4562  -24.3879  -14.7770 H   0  0  0  0  0  0  0  0  0  0  0  0
    8.3018  -22.0546  -13.6989 H   0  0  0  0  0  0  0  0  0  0  0  0
   11.0056  -24.0680  -13.3780 H   0  0  0  0  0  0  0  0  0  0  0  0
    9.4383  -22.1678  -11.9380 H   0  0  0  0  0  0  0  0  0  0  0  0
   10.5140  -24.2457  -10.8531 H   0  0  0  0  0  0  0  0  0  0  0  0
    8.0149  -24.9978  -11.9707 H   0  0  0  0  0  0  0  0  0  0  0  0
   10.6651  -26.5482  -11.0862 H   0  0  0  0  0  0  0  0  0  0  0  0
    9.5696  -26.5931  -12.4327 H   0  0  0  0  0  0  0  0  0  0  0  0
   11.5719  -25.0984  -15.4275 H   0  0  0  0  0  0  0  0  0  0  0  0
  1  2  2  0
  1  3  1  6
  1  4  1  0
  4  5  1  0
  6  5  1  0
  6  7  1  0
  6  8  1  0
  8  9  1  0
  8 10  1  0
 10 11  1  0
  7 12  1  0
 10 12  1  0
 12 13  1  0
 13 14  4  0
 14 15  4  0
 15 16  4  0
 16 17  4  0
 17 18  1  0
 17 19  4  0
 19 20  4  0
 20 21  4  0
 13 22  4  0
 16 22  4  0
 21 22  4  0
 23 24  4  0
 24 25  2  0
 24 26  4  0
 26 27  4  0
 27 28  2  0
 27 29  4  0
 29 30  1  0
 30 31  1  0
 31 32  4  0
 32 33  4  0
 33 34  1  0
 33 35  4  0
 35 36  1  0
 35 37  4  0
 31 38  4  0
 37 38  4  0
 38 39  1  0
 23 40  4  0
 29 40  4  0
 39 40  1  0
 39 41  1  0
 41 42  1  0
 42 43  1  0
 42 44  1  0
 44 45  1  0
 44 46  1  0
 46 47  1  0
 46 48  1  0
 48 49  1  0
 50 49  1  6
 50 51  2  0
 50 52  1  0
  1 53  1  0
 50 53  1  0
  3 54  1  0
  5 55  1  0
  5 56  1  0
  6 57  1  1
  8 58  1  6
  9 59  1  0
 10 60  1  6
 11 61  1  0
 12 62  1  1
 14 63  1  0
 18 64  1  0
 18 65  1  0
 20 66  1  0
 23 67  1  0
 26 68  1  0
 30 69  1  0
 32 70  1  0
 34 71  1  0
 34 72  1  0
 34 73  1  0
 36 74  1  0
 36 75  1  0
 36 76  1  0
 37 77  1  0
 41 78  1  0
 41 79  1  0
 42 80  1  1
 43 81  1  0
 44 82  1  1
 45 83  1  0
 46 84  1  6
 47 85  1  0
 48 86  1  0
 48 87  1  0
 52 88  1  0
M  CHG  3  13   1  23   1  26   1
M  END
