
     RDKit          3D

 14 13  0  0  0  0  0  0  0  0999 V2000
   26.9159   -4.6051   28.2714 P   0  0  0  0  0  5  0  0  0  0  0  0
   27.0374   -3.6130   29.4943 O   0  0  0  0  0  0  0  0  0  0  0  0
   26.8991   -2.0307   29.4933 P   0  0  0  0  0  5  0  0  0  0  0  0
   28.1957   -4.3521   27.3573 O   0  0  0  0  0  0  0  0  0  0  0  0
   25.6620   -4.4972   27.4738 O   0  0  0  0  0  0  0  0  0  0  0  0
   27.2098   -6.0630   28.8457 O   0  0  0  0  0  0  0  0  0  0  0  0
   25.4760   -1.5899   29.6516 O   0  0  0  0  0  0  0  0  0  0  0  0
   27.6878   -1.6584   30.8537 O   0  0  0  0  0  0  0  0  0  0  0  0
   27.8137   -1.1205   27.8763 S   0  0  0  0  0  0  0  0  0  0  0  0
   28.5822    0.3732   28.5627 C   0  0  0  0  0  0  0  0  0  0  0  0
   27.6163    1.5249   28.8638 C   0  0  0  0  0  0  0  0  0  0  0  0
   28.1518    2.5858   29.8005 C   0  0  0  0  0  0  0  0  0  0  0  0
   29.5586    3.0604   29.5615 C   0  0  0  0  0  0  0  0  0  0  0  0
   27.4248    3.0407   30.8348 C   0  0  0  0  0  0  0  0  0  0  0  0
  1  2  1  0
  2  3  1  0
  1  4  1  0
  1  5  2  0
  1  6  1  0
  3  7  2  0
  3  8  1  0
  3  9  1  0
  9 10  1  0
 10 11  1  0
 11 12  1  0
 12 13  1  0
 12 14  2  0
M  END
