8CSD_C5P_A_501
     RDKit          3D

 21 22  0  0  0  0  0  0  0  0999 V2000
   16.9907   68.1492   25.9300 O   0  0  0  0  0  0  0  0  0  0  0  0
   17.3079   69.2636   24.6766 P   0  0  1  0  0  5  0  0  0  0  0  0
   18.6992   69.0095   24.1416 O   0  0  0  0  0  0  0  0  0  0  0  0
   16.2162   68.9319   23.4202 O   0  0  0  0  0  0  0  0  0  0  0  0
   17.1596   70.8488   25.2264 O   0  0  0  0  0  0  0  0  0  0  0  0
   18.4232   71.4206   25.3110 C   0  0  0  0  0  0  0  0  0  0  0  0
   18.7193   72.3396   24.1692 C   0  0  1  0  0  0  0  0  0  0  0  0
   17.6931   72.4641   23.2468 O   0  0  0  0  0  0  0  0  0  0  0  0
   18.9583   73.7284   24.7322 C   0  0  1  0  0  0  0  0  0  0  0  0
   20.3315   73.9252   24.7644 O   0  0  0  0  0  0  0  0  0  0  0  0
   18.3186   74.5865   23.6531 C   0  0  1  0  0  0  0  0  0  0  0  0
   19.1492   75.6461   23.2971 O   0  0  0  0  0  0  0  0  0  0  0  0
   18.1525   73.5918   22.5413 C   0  0  2  0  0  0  0  0  0  0  0  0
   17.2953   74.0070   21.4842 N   0  0  0  0  0  0  0  0  0  0  0  0
   17.7495   74.7344   20.4407 C   0  0  0  0  0  0  0  0  0  0  0  0
   16.8954   75.1114   19.4498 N   0  0  0  0  0  0  0  0  0  0  0  0
   15.5891   74.7652   19.4960 C   0  0  0  0  0  0  0  0  0  0  0  0
   15.0896   74.0185   20.5534 C   0  0  0  0  0  0  0  0  0  0  0  0
   15.9837   73.6424   21.5594 C   0  0  0  0  0  0  0  0  0  0  0  0
   18.9512   75.0752   20.3604 O   0  0  0  0  0  0  0  0  0  0  0  0
   14.7079   75.1694   18.4477 N   0  0  0  0  0  0  0  0  0  0  0  0
  2  1  1  1
  2  3  2  0
  2  4  1  0
  2  5  1  0
  6  5  1  6
  7  6  1  0
  7  8  1  6
  7  9  1  0
  9 10  1  6
  9 11  1  0
 11 12  1  6
  8 13  1  0
 11 13  1  0
 13 14  1  6
 14 15  1  0
 15 16  1  0
 16 17  2  0
 17 18  1  0
 14 19  1  0
 18 19  2  0
 15 20  2  0
 17 21  1  0
M  END
$$$$
