
     RDKit          3D

 17 18  0  0  0  0  0  0  0  0999 V2000
   38.6383   30.3222   24.2950 C   0  0  0  0  0  0  0  0  0  0  0  0
   38.9717   29.5437   25.3876 C   0  0  0  0  0  0  0  0  0  0  0  0
   37.8918   29.5777   26.2889 C   0  0  0  0  0  0  0  0  0  0  0  0
   36.9151   30.3912   25.7481 C   0  0  0  0  0  0  0  0  0  0  0  0
   35.6128   30.7848   26.3568 C   0  0  0  0  0  0  0  0  0  0  0  0
   38.2838   33.8259   25.0447 O   0  0  0  0  0  0  0  0  0  0  0  0
   36.6594   31.7128   23.6404 C   0  0  0  0  0  0  0  0  0  0  0  0
   37.1716   32.9414   23.1916 C   0  0  0  0  0  0  0  0  0  0  0  0
   36.4725   33.6756   22.2211 C   0  0  0  0  0  0  0  0  0  0  0  0
   39.3521   33.9283   23.0752 O   0  0  0  0  0  0  0  0  0  0  0  0
   35.2603   33.1948   21.7378 C   0  0  0  0  0  0  0  0  0  0  0  0
   34.7302   31.9963   22.2019 C   0  0  0  0  0  0  0  0  0  0  0  0
   35.4276   31.2495   23.1525 C   0  0  0  0  0  0  0  0  0  0  0  0
   38.3895   33.5768   23.7307 C   0  0  0  0  0  0  0  0  0  0  0  0
   34.5472   33.8804   20.8000 O   0  0  0  0  0  0  0  0  0  0  0  0
   37.3828   30.8761   24.5309 N   0  0  0  0  0  0  0  0  0  0  0  0
   39.4228   30.5008   23.0396 C   0  0  0  0  0  0  0  0  0  0  0  0
  1  2  4  0
  2  3  4  0
  3  4  4  0
  4  5  1  0
  7  8  4  0
  8  9  4  0
  9 11  4  0
 11 12  4  0
  7 13  4  0
 12 13  4  0
 10 14  2  0
  6 14  1  0
  8 14  1  0
 11 15  1  0
  4 16  4  0
  7 16  1  0
  1 16  4  0
  1 17  1  0
M  END
