8C3N_ADP_A_401
     RDKit          3D

 27 29  0  0  0  0  0  0  0  0999 V2000
   35.8564  -38.1443  -44.3021 P   0  0  1  0  0  5  0  0  0  0  0  0
   36.9558  -37.1111  -44.5525 O   0  0  0  0  0  0  0  0  0  0  0  0
   36.2493  -39.6077  -45.0848 O   0  0  0  0  0  0  0  0  0  0  0  0
   35.8288  -38.3723  -42.6281 O   0  0  0  0  0  0  0  0  0  0  0  0
   33.1059  -37.7771  -43.9316 P   0  0  1  0  0  5  0  0  0  0  0  0
   32.5192  -39.1060  -44.3350 O   0  0  0  0  0  0  0  0  0  0  0  0
   33.6575  -37.8209  -42.3163 O   0  0  0  0  0  0  0  0  0  0  0  0
   34.4433  -37.4759  -44.8943 O   0  0  0  0  0  0  0  0  0  0  0  0
   31.9226  -36.6075  -44.0349 O   0  0  0  0  0  0  0  0  0  0  0  0
   31.9664  -35.9287  -45.2442 C   0  0  0  0  0  0  0  0  0  0  0  0
   32.3153  -34.4664  -45.0725 C   0  0  1  0  0  0  0  0  0  0  0  0
   32.3203  -34.0946  -43.7396 O   0  0  0  0  0  0  0  0  0  0  0  0
   33.6855  -34.2400  -45.6206 C   0  0  1  0  0  0  0  0  0  0  0  0
   33.6609  -33.1893  -46.5453 O   0  0  0  0  0  0  0  0  0  0  0  0
   34.4344  -33.7158  -44.3858 C   0  0  1  0  0  0  0  0  0  0  0  0
   35.3733  -32.7901  -44.8255 O   0  0  0  0  0  0  0  0  0  0  0  0
   33.2748  -33.0879  -43.6406 C   0  0  2  0  0  0  0  0  0  0  0  0
   33.6327  -32.7767  -42.2939 N   0  0  0  0  0  0  0  0  0  0  0  0
   33.8668  -33.7278  -41.3501 C   0  0  0  0  0  0  0  0  0  0  0  0
   34.1825  -33.1459  -40.1786 N   0  0  0  0  0  0  0  0  0  0  0  0
   34.1591  -31.8206  -40.3398 C   0  0  0  0  0  0  0  0  0  0  0  0
   34.3988  -30.7612  -39.4838 C   0  0  0  0  0  0  0  0  0  0  0  0
   34.7514  -30.9731  -38.1289 N   0  0  0  0  0  0  0  0  0  0  0  0
   34.2803  -29.5071  -40.0038 N   0  0  0  0  0  0  0  0  0  0  0  0
   33.9423  -29.2990  -41.3030 C   0  0  0  0  0  0  0  0  0  0  0  0
   33.7143  -30.3496  -42.1147 N   0  0  0  0  0  0  0  0  0  0  0  0
   33.8161  -31.6099  -41.6583 C   0  0  0  0  0  0  0  0  0  0  0  0
  1  2  2  0
  1  3  1  6
  1  4  1  0
  5  6  2  0
  5  7  1  1
  1  8  1  0
  5  8  1  0
  5  9  1  0
 10  9  1  1
 11 10  1  0
 11 12  1  1
 11 13  1  0
 13 14  1  6
 13 15  1  0
 15 16  1  6
 12 17  1  0
 15 17  1  0
 17 18  1  1
 18 19  1  0
 19 20  2  0
 20 21  1  0
 21 22  2  0
 22 23  1  0
 22 24  1  0
 24 25  2  0
 25 26  1  0
 18 27  1  0
 21 27  1  0
 26 27  2  0
M  END
$$$$
