7AA0_R6B_BBB_201
     RDKit          3D

 26 28  0  0  0  0  0  0  0  0999 V2000
   16.7447    2.9471   11.8864 C   0  0  0  0  0  0  0  0  0  0  0  0
   14.5405    3.7520   12.5080 C   0  0  0  0  0  0  0  0  0  0  0  0
   17.9170    2.2933   12.1978 C   0  0  0  0  0  0  0  0  0  0  0  0
   18.7938    1.8262   11.2183 C   0  0  0  0  0  0  0  0  0  0  0  0
   20.0831    0.5421   14.1641 C   0  0  0  0  0  0  0  0  0  0  0  0
   15.9053    3.3861   13.0452 C   0  0  1  0  0  0  0  0  0  0  0  0
   15.8494    2.2350   14.0086 C   0  0  0  0  0  0  0  0  0  0  0  0
   17.2106    1.9347   14.5381 C   0  0  0  0  0  0  0  0  0  0  0  0
   19.6220    1.9682   13.9990 C   0  0  2  0  0  0  0  0  0  0  0  0
   19.8171    2.6297   15.3541 C   0  0  0  0  0  0  0  0  0  0  0  0
   16.5038    4.6361   13.6227 C   0  0  0  0  0  0  0  0  0  0  0  0
   18.2744    2.0728   13.5360 N   0  0  0  0  0  0  0  0  0  0  0  0
   16.3962    3.1635   10.5822 C   0  0  0  0  0  0  0  0  0  0  0  0
   18.4257    2.0539    9.8931 C   0  0  0  0  0  0  0  0  0  0  0  0
   17.2516    2.7088    9.5797 C   0  0  0  0  0  0  0  0  0  0  0  0
   16.9052    2.9273    8.1784 C   0  0  0  0  0  0  0  0  0  0  0  0
   17.7509    2.6539    7.1332 C   0  0  0  0  0  0  0  0  0  0  0  0
   17.3270    2.8977    5.8443 C   0  0  0  0  0  0  0  0  0  0  0  0
   16.0851    3.4079    5.5323 C   0  0  0  0  0  0  0  0  0  0  0  0
   15.2406    3.6803    6.5868 C   0  0  0  0  0  0  0  0  0  0  0  0
   15.6588    3.4384    7.8810 C   0  0  0  0  0  0  0  0  0  0  0  0
   15.6885    3.6458    4.1582 C   0  0  0  0  0  0  0  0  0  0  0  0
   16.4328    3.3669    3.1061 C   0  0  0  0  0  0  0  0  0  0  0  0
   15.9496    3.5844    1.7353 C   0  0  0  0  0  0  0  0  0  0  0  0
   16.6868    3.2534    0.6155 O   0  0  0  0  0  0  0  0  0  0  0  0
   14.8125    4.0956    1.5930 O   0  0  0  0  0  0  0  0  0  0  0  0
  1  3  1  0
  3  4  2  0
  1  6  1  0
  6  2  1  6
  6  7  1  0
  7  8  1  0
  9  5  1  1
  9 10  1  0
  6 11  1  0
  8 12  1  0
  9 12  1  0
  3 12  1  0
  1 13  2  0
  4 14  1  0
 13 15  1  0
 14 15  2  0
 15 16  1  0
 16 17  2  0
 17 18  1  0
 18 19  2  0
 19 20  1  0
 16 21  1  0
 20 21  2  0
 19 22  1  0
 22 23  2  0
 23 24  1  0
 24 25  1  0
 24 26  2  0
M  END
$$$$
