7UAS_MBU_A_401
     RDKit          3D

 71 76  0  0  0  0  0  0  0  0999 V2000
   -4.3237   -1.1668    1.6241 C   0  0  0  0  0  0  0  0  0  0  0  0
   -5.0419    1.2485   -0.2034 C   0  0  0  0  0  0  0  0  0  0  0  0
   -6.2982   -1.9061   -1.3238 C   0  0  0  0  0  0  0  0  0  0  0  0
   -0.1264   -4.8993    2.1042 C   0  0  0  0  0  0  0  0  0  0  0  0
    0.8589   -5.9290   -2.6228 C   0  0  0  0  0  0  0  0  0  0  0  0
    2.3235   -5.6051   -2.8902 C   0  0  0  0  0  0  0  0  0  0  0  0
    4.4908    2.4225    2.5400 C   0  0  0  0  0  0  0  0  0  0  0  0
    3.9128    1.0205    2.6559 C   0  0  0  0  0  0  0  0  0  0  0  0
    1.6864    5.5935   -0.6398 C   0  0  0  0  0  0  0  0  0  0  0  0
    2.9645    3.2115   -1.2559 C   0  0  0  0  0  0  0  0  0  0  0  0
    1.7903    0.2155   -0.3359 C   0  0  0  0  0  0  0  0  0  0  0  0
    2.3541    2.3199    1.0544 C   0  0  1  0  0  0  0  0  0  0  0  0
    0.0704    1.2303    1.1340 C   0  0  0  0  0  0  0  0  0  0  0  0
   -0.7471    0.0041    0.9878 C   0  0  0  0  0  0  0  0  0  0  0  0
   -0.1547   -1.1681    0.4643 C   0  0  0  0  0  0  0  0  0  0  0  0
    1.3259   -1.1661    0.1303 C   0  0  0  0  0  0  0  0  0  0  0  0
   -0.9274   -2.3500    0.3721 C   0  0  0  0  0  0  0  0  0  0  0  0
   -2.2724   -2.3379    0.7621 C   0  0  0  0  0  0  0  0  0  0  0  0
   -2.8647   -1.1699    1.2552 C   0  0  0  0  0  0  0  0  0  0  0  0
   -2.0984   -0.0036    1.3691 C   0  0  0  0  0  0  0  0  0  0  0  0
   -5.4728   -0.1700   -0.4042 C   0  0  0  0  0  0  0  0  0  0  0  0
   -5.6649   -2.2927   -0.1645 C   0  0  0  0  0  0  0  0  0  0  0  0
   -0.0094   -4.7353    0.6198 C   0  0  0  0  0  0  0  0  0  0  0  0
   -0.3566   -3.6156   -0.1186 C   0  0  0  0  0  0  0  0  0  0  0  0
   -0.0861   -3.9482   -1.4282 C   0  0  0  0  0  0  0  0  0  0  0  0
    3.7781    1.7912    1.3507 C   0  0  0  0  0  0  0  0  0  0  0  0
    2.2732    5.4387   -1.8958 C   0  0  0  0  0  0  0  0  0  0  0  0
    2.3689    3.4044    0.0031 C   0  0  0  0  0  0  0  0  0  0  0  0
    2.9315    4.2418   -2.2052 C   0  0  0  0  0  0  0  0  0  0  0  0
    3.5307    4.0342   -3.5645 C   0  0  0  0  0  0  0  0  0  0  0  0
    0.5163   -6.0558    2.5072 F   0  0  0  0  0  0  0  0  0  0  0  0
    0.4536   -3.8181    2.7425 F   0  0  0  0  0  0  0  0  0  0  0  0
   -1.4605   -4.9778    2.4576 F   0  0  0  0  0  0  0  0  0  0  0  0
    1.4318    1.2342    0.6616 N   0  0  0  0  0  0  0  0  0  0  0  0
   -6.1750   -0.5725   -1.4847 N   0  0  0  0  0  0  0  0  0  0  0  0
   -5.1496   -1.1955    0.4159 N   0  0  0  0  0  0  0  0  0  0  0  0
    0.4487   -5.6925   -0.2121 N   0  0  0  0  0  0  0  0  0  0  0  0
    0.3907   -5.2080   -1.4443 N   0  0  0  0  0  0  0  0  0  0  0  0
    1.7442    4.5850    0.2689 N   0  0  0  0  0  0  0  0  0  0  0  0
   -0.4211    2.2609    1.6719 O   0  0  0  0  0  0  0  0  0  0  0  0
   -4.5808   -0.2757    2.2363 H   0  0  0  0  0  0  0  0  0  0  0  0
   -4.5459   -2.0563    2.2541 H   0  0  0  0  0  0  0  0  0  0  0  0
   -3.9597    1.3428   -0.4262 H   0  0  0  0  0  0  0  0  0  0  0  0
   -5.6073    1.9179   -0.8854 H   0  0  0  0  0  0  0  0  0  0  0  0
   -5.2371    1.5646    0.8418 H   0  0  0  0  0  0  0  0  0  0  0  0
   -6.8061   -2.5593   -2.0203 H   0  0  0  0  0  0  0  0  0  0  0  0
    0.2472   -5.6451   -3.5070 H   0  0  0  0  0  0  0  0  0  0  0  0
    0.7459   -7.0231   -2.4609 H   0  0  0  0  0  0  0  0  0  0  0  0
    2.9452   -5.9058   -2.0207 H   0  0  0  0  0  0  0  0  0  0  0  0
    2.4473   -4.5157   -3.0676 H   0  0  0  0  0  0  0  0  0  0  0  0
    2.6706   -6.1572   -3.7887 H   0  0  0  0  0  0  0  0  0  0  0  0
    5.5986    2.4418    2.4583 H   0  0  0  0  0  0  0  0  0  0  0  0
    3.9278    3.1887    3.1143 H   0  0  0  0  0  0  0  0  0  0  0  0
    4.6740    0.2120    2.6332 H   0  0  0  0  0  0  0  0  0  0  0  0
    2.9961    0.9570    3.2811 H   0  0  0  0  0  0  0  0  0  0  0  0
    1.1781    6.5149   -0.3885 H   0  0  0  0  0  0  0  0  0  0  0  0
    3.4500    2.2764   -1.4994 H   0  0  0  0  0  0  0  0  0  0  0  0
    1.2943    0.4620   -1.3002 H   0  0  0  0  0  0  0  0  0  0  0  0
    2.8817    0.1795   -0.5200 H   0  0  0  0  0  0  0  0  0  0  0  0
    1.9670    2.7820    1.9913 H   0  0  0  0  0  0  0  0  0  0  0  0
    1.8981   -1.4613    1.0361 H   0  0  0  0  0  0  0  0  0  0  0  0
    1.5587   -1.8893   -0.6778 H   0  0  0  0  0  0  0  0  0  0  0  0
   -2.8639   -3.2423    0.6762 H   0  0  0  0  0  0  0  0  0  0  0  0
   -2.5575    0.8983    1.7552 H   0  0  0  0  0  0  0  0  0  0  0  0
   -5.5718   -3.3022    0.2155 H   0  0  0  0  0  0  0  0  0  0  0  0
   -0.2240   -3.3216   -2.3005 H   0  0  0  0  0  0  0  0  0  0  0  0
    4.4542    1.4575    0.5356 H   0  0  0  0  0  0  0  0  0  0  0  0
    2.2135    6.2426   -2.6189 H   0  0  0  0  0  0  0  0  0  0  0  0
    3.8066    5.0055   -4.0274 H   0  0  0  0  0  0  0  0  0  0  0  0
    4.4495    3.4137   -3.4928 H   0  0  0  0  0  0  0  0  0  0  0  0
    2.7951    3.5183   -4.2168 H   0  0  0  0  0  0  0  0  0  0  0  0
  5  6  1  0
  7  8  1  0
 13 14  1  0
 14 15  2  0
 11 16  1  0
 15 16  1  0
 15 17  1  0
 17 18  2  0
 18 19  1  0
  1 19  1  0
 14 20  1  0
 19 20  2  0
  2 21  1  0
  3 22  2  0
  4 23  1  0
 17 24  1  0
 23 24  1  0
 24 25  2  0
  8 26  1  0
  7 26  1  0
 12 26  1  0
  9 27  2  0
 12 28  1  0
 10 28  1  0
 27 29  1  0
 10 29  2  0
 29 30  1  0
  4 31  1  0
  4 32  1  0
  4 33  1  0
 12 34  1  0
 11 34  1  0
 13 34  1  0
 21 35  2  0
  3 35  1  0
  1 36  1  0
 21 36  1  0
 22 36  1  0
 23 37  2  0
 37 38  1  0
 25 38  1  0
  5 38  1  0
  9 39  1  0
 28 39  2  0
 13 40  2  0
  1 41  1  0
  1 42  1  0
  2 43  1  0
  2 44  1  0
  2 45  1  0
  3 46  1  0
  5 47  1  0
  5 48  1  0
  6 49  1  0
  6 50  1  0
  6 51  1  0
  7 52  1  0
  7 53  1  0
  8 54  1  0
  8 55  1  0
  9 56  1  0
 10 57  1  0
 11 58  1  0
 11 59  1  0
 12 60  1  1
 16 61  1  0
 16 62  1  0
 18 63  1  0
 20 64  1  0
 22 65  1  0
 25 66  1  0
 26 67  1  0
 27 68  1  0
 30 69  1  0
 30 70  1  0
 30 71  1  0
M  END
