7VWF_K55_A_502
     RDKit          3D

 33 34  0  0  0  0  0  0  0  0999 V2000
   25.7195  -20.7406   22.3354 O   0  0  0  0  0  0  0  0  0  0  0  0
   24.9397  -18.6907   22.1466 O   0  0  0  0  0  0  0  0  0  0  0  0
   24.7937  -19.9323   22.1263 C   0  0  0  0  0  0  0  0  0  0  0  0
   23.4093  -20.4981   21.7812 C   0  0  1  0  0  0  0  0  0  0  0  0
   23.3401  -20.9739   20.3216 C   0  0  0  0  0  0  0  0  0  0  0  0
   24.3277  -20.2625   19.4139 C   0  0  0  0  0  0  0  0  0  0  0  0
   23.0814  -21.6173   22.7756 C   0  0  0  0  0  0  0  0  0  0  0  0
   21.7364  -22.2765   22.5903 C   0  0  0  0  0  0  0  0  0  0  0  0
   20.6012  -21.8087   23.2527 C   0  0  0  0  0  0  0  0  0  0  0  0
   19.3580  -22.4236   23.1152 C   0  0  0  0  0  0  0  0  0  0  0  0
   19.2700  -23.5486   22.2900 C   0  0  0  0  0  0  0  0  0  0  0  0
   20.3885  -24.0373   21.6388 C   0  0  0  0  0  0  0  0  0  0  0  0
   21.6053  -23.4016   21.7942 C   0  0  0  0  0  0  0  0  0  0  0  0
   18.0375  -24.1342   22.2041 O   0  0  0  0  0  0  0  0  0  0  0  0
   17.9748  -25.4962   21.7621 C   0  0  0  0  0  0  0  0  0  0  0  0
   16.5830  -26.0097   22.0164 C   0  0  0  0  0  0  0  0  0  0  0  0
   16.4533  -26.9241   23.2091 C   0  0  0  0  0  0  0  0  0  0  0  0
   16.7125  -28.3809   22.8954 C   0  0  0  0  0  0  0  0  0  0  0  0
   18.1399  -21.9041   23.8324 C   0  0  0  0  0  0  0  0  0  0  0  0
   17.5000  -20.7789   23.1539 N   0  0  0  0  0  0  0  0  0  0  0  0
   16.8541  -19.8298   23.8354 C   0  0  0  0  0  0  0  0  0  0  0  0
   15.6598  -19.9108   24.1104 O   0  0  0  0  0  0  0  0  0  0  0  0
   17.6436  -18.6316   24.2658 C   0  0  0  0  0  0  0  0  0  0  0  0
   17.3631  -17.3280   23.9097 C   0  0  0  0  0  0  0  0  0  0  0  0
   18.1136  -16.2562   24.3335 C   0  0  0  0  0  0  0  0  0  0  0  0
   19.2012  -16.4770   25.1624 C   0  0  0  0  0  0  0  0  0  0  0  0
   19.5041  -17.7690   25.5517 C   0  0  0  0  0  0  0  0  0  0  0  0
   18.7331  -18.8305   25.1098 C   0  0  0  0  0  0  0  0  0  0  0  0
   20.0206  -15.3266   25.6447 C   0  0  2  0  0  0  0  0  0  0  0  0
   16.3096  -17.0726   23.1024 F   0  0  0  0  0  0  0  0  0  0  0  0
   19.8174  -15.0642   26.9268 F   0  0  0  0  0  0  0  0  0  0  0  0
   19.7647  -14.1942   24.9950 F   0  0  0  0  0  0  0  0  0  0  0  0
   21.3245  -15.5388   25.5127 F   0  0  0  0  0  0  0  0  0  0  0  0
  1  3  1  0
  2  3  2  0
  3  4  1  0
  4  5  1  6
  5  6  1  0
  4  7  1  0
  7  8  1  0
  8  9  2  0
  9 10  1  0
 10 11  2  0
 11 12  1  0
  8 13  1  0
 12 13  2  0
 11 14  1  0
 14 15  1  0
 15 16  1  0
 16 17  1  0
 17 18  1  0
 10 19  1  0
 19 20  1  0
 20 21  1  0
 21 22  2  0
 21 23  1  0
 23 24  2  0
 24 25  1  0
 25 26  2  0
 26 27  1  0
 23 28  1  0
 27 28  2  0
 26 29  1  0
 24 30  1  0
 29 31  1  1
 29 32  1  0
 29 33  1  0
M  END
