7BJ6_TVK_A_207
     RDKit          3D

 64 68  0  0  0  0  0  0  0  0999 V2000
  -20.2018  -10.0768   18.0596 C   0  0  1  0  0  0  0  0  0  0  0  0
  -21.3653   -9.2040   17.5693 C   0  0  2  0  0  0  0  0  0  0  0  0
  -23.2047   -9.5456   14.3658 C   0  0  1  0  0  0  0  0  0  0  0  0
  -25.4324  -10.8761   14.6990 C   0  0  1  0  0  0  0  0  0  0  0  0
  -25.8389  -12.5965   12.8909 C   0  0  0  0  0  0  0  0  0  0  0  0
  -26.4724  -12.9802   11.7081 C   0  0  0  0  0  0  0  0  0  0  0  0
  -27.4043  -12.1289   11.1113 C   0  0  0  0  0  0  0  0  0  0  0  0
  -27.6880  -10.8993   11.7120 C   0  0  0  0  0  0  0  0  0  0  0  0
  -25.2522   -8.3810   14.1631 C   0  0  0  0  0  0  0  0  0  0  0  0
  -26.4898   -8.1460   14.1724 O   0  0  0  0  0  0  0  0  0  0  0  0
  -24.3383   -6.1107   13.4314 C   0  0  0  0  0  0  0  0  0  0  0  0
  -21.9367   -6.1109   13.0344 C   0  0  0  0  0  0  0  0  0  0  0  0
  -21.8529   -7.4444   13.4665 C   0  0  0  0  0  0  0  0  0  0  0  0
  -23.0097   -8.0834   13.9365 C   0  0  0  0  0  0  0  0  0  0  0  0
  -23.2666   -3.9766   12.5146 C   0  0  1  0  0  0  0  0  0  0  0  0
  -21.9276   -3.5008   11.9119 C   0  0  1  0  0  0  0  0  0  0  0  0
  -24.3591   -3.9164   11.4404 C   0  0  1  0  0  0  0  0  0  0  0  0
  -22.7263  -11.4845   11.0843 C   0  0  0  0  0  0  0  0  0  0  0  0
  -21.8197  -11.5993   13.7246 C   0  0  0  0  0  0  0  0  0  0  0  0
  -21.6948   -7.9913   18.4332 C   0  0  1  0  0  0  0  0  0  0  0  0
  -22.6199   -9.2061   18.4362 C   0  0  2  0  0  0  0  0  0  0  0  0
  -20.1053   -9.9857   19.4543 O   0  0  0  0  0  0  0  0  0  0  0  0
  -21.5949   -9.0509   16.0586 C   0  0  1  0  0  0  0  0  0  0  0  0
  -22.7380   -9.7997   15.6922 O   0  0  0  0  0  0  0  0  0  0  0  0
  -24.6740   -9.6587   14.4029 N   0  0  0  0  0  0  0  0  0  0  0  0
  -26.1391  -11.3503   13.4617 C   0  0  0  0  0  0  0  0  0  0  0  0
  -28.2087  -12.5972    9.6252 Cl  0  0  0  0  0  0  0  0  0  0  0  0
  -27.0529  -10.5396   12.8595 N   0  0  0  0  0  0  0  0  0  0  0  0
  -24.2203   -7.4256   13.8739 C   0  0  0  0  0  0  0  0  0  0  0  0
  -23.1718   -5.4107   13.0454 C   0  0  0  0  0  0  0  0  0  0  0  0
  -20.6753   -8.1077   13.3626 F   0  0  0  0  0  0  0  0  0  0  0  0
  -23.6321   -3.0854   13.5442 O   0  0  0  0  0  0  0  0  0  0  0  0
  -22.6664  -10.5420   13.3351 C   0  0  0  0  0  0  0  0  0  0  0  0
  -23.1384  -10.5179   12.0053 C   0  0  0  0  0  0  0  0  0  0  0  0
  -21.8529  -12.5009   11.4773 C   0  0  0  0  0  0  0  0  0  0  0  0
  -21.3466  -13.7190   10.3221 Cl  0  0  0  0  0  0  0  0  0  0  0  0
  -21.4027  -12.5589   12.7983 C   0  0  0  0  0  0  0  0  0  0  0  0
  -20.3472  -11.1418   17.7706 H   0  0  0  0  0  0  0  0  0  0  0  0
  -19.2602   -9.7183   17.5879 H   0  0  0  0  0  0  0  0  0  0  0  0
  -24.7453  -11.6609   15.0832 H   0  0  0  0  0  0  0  0  0  0  0  0
  -26.1753  -10.6718   15.4991 H   0  0  0  0  0  0  0  0  0  0  0  0
  -25.1177  -13.2589   13.3491 H   0  0  0  0  0  0  0  0  0  0  0  0
  -26.2384  -13.9353   11.2572 H   0  0  0  0  0  0  0  0  0  0  0  0
  -28.4088  -10.2271   11.2659 H   0  0  0  0  0  0  0  0  0  0  0  0
  -25.3196   -5.6601   13.3614 H   0  0  0  0  0  0  0  0  0  0  0  0
  -21.0393   -5.6405   12.6587 H   0  0  0  0  0  0  0  0  0  0  0  0
  -21.4327   -2.7857   12.6024 H   0  0  0  0  0  0  0  0  0  0  0  0
  -21.2437   -4.3615   11.7565 H   0  0  0  0  0  0  0  0  0  0  0  0
  -22.0734   -2.9800   10.9436 H   0  0  0  0  0  0  0  0  0  0  0  0
  -24.0793   -3.1921   10.6460 H   0  0  0  0  0  0  0  0  0  0  0  0
  -24.4905   -4.9142   10.9696 H   0  0  0  0  0  0  0  0  0  0  0  0
  -25.3308   -3.6003   11.8808 H   0  0  0  0  0  0  0  0  0  0  0  0
  -23.0966  -11.4490   10.0677 H   0  0  0  0  0  0  0  0  0  0  0  0
  -21.4992  -11.7025   14.7507 H   0  0  0  0  0  0  0  0  0  0  0  0
  -21.1044   -7.8827   19.3680 H   0  0  0  0  0  0  0  0  0  0  0  0
  -22.1186   -7.1111   17.9039 H   0  0  0  0  0  0  0  0  0  0  0  0
  -22.5685   -9.8026   19.3717 H   0  0  0  0  0  0  0  0  0  0  0  0
  -23.5811   -9.0317   17.9065 H   0  0  0  0  0  0  0  0  0  0  0  0
  -20.5431   -9.1331   19.7061 H   0  0  0  0  0  0  0  0  0  0  0  0
  -21.7563   -7.9784   15.8173 H   0  0  0  0  0  0  0  0  0  0  0  0
  -20.6810   -9.4084   15.5382 H   0  0  0  0  0  0  0  0  0  0  0  0
  -24.2217   -2.3897   13.1490 H   0  0  0  0  0  0  0  0  0  0  0  0
  -23.8407   -9.7606   11.6805 H   0  0  0  0  0  0  0  0  0  0  0  0
  -20.7455  -13.3590   13.1150 H   0  0  0  0  0  0  0  0  0  0  0  0
  2  1  1  6
  5  6  2  0
  6  7  1  0
  7  8  2  0
  9 10  2  0
 12 13  1  0
 13 14  2  0
  3 14  1  0
 15 16  1  0
 15 17  1  0
  2 20  1  0
  2 21  1  0
 20 21  1  0
  1 22  1  0
  2 23  1  0
  3 24  1  1
 23 24  1  0
  3 25  1  0
  9 25  1  0
  4 25  1  0
  5 26  1  0
  4 26  1  0
  7 27  1  0
  8 28  1  0
 26 28  2  0
 14 29  1  0
 11 29  2  0
  9 29  1  0
 12 30  2  0
 15 30  1  0
 11 30  1  0
 13 31  1  0
 15 32  1  1
 19 33  2  0
  3 33  1  0
 18 34  2  0
 33 34  1  0
 18 35  1  0
 35 36  1  0
 35 37  2  0
 19 37  1  0
  1 38  1  1
  1 39  1  0
  4 40  1  1
  4 41  1  0
  5 42  1  0
  6 43  1  0
  8 44  1  0
 11 45  1  0
 12 46  1  0
 16 47  1  1
 16 48  1  0
 16 49  1  0
 17 50  1  6
 17 51  1  0
 17 52  1  0
 18 53  1  0
 19 54  1  0
 20 55  1  1
 20 56  1  0
 21 57  1  1
 21 58  1  0
 22 59  1  0
 23 60  1  1
 23 61  1  0
 32 62  1  0
 34 63  1  0
 37 64  1  0
M  END
