7OMJ_GCP_A_401
     RDKit          3D

 50 52  0  0  0  0  0  0  0  0999 V2000
    3.1636  -14.8025   20.3669 P   0  0  2  0  0  5  0  0  0  0  0  0
    3.0437  -15.8594   19.2951 O   0  0  0  0  0  0  0  0  0  0  0  0
    3.0611  -15.4578   21.6936 O   0  0  0  0  0  0  0  0  0  0  0  0
    2.1020  -13.7990   20.0295 O   0  0  0  0  0  0  0  0  0  0  0  0
    4.7908  -13.9575   20.2286 C   0  0  0  0  0  0  0  0  0  0  0  0
    6.0583  -14.7440   19.1725 P   0  0  1  0  0  5  0  0  0  0  0  0
    5.7120  -16.1472   18.7925 O   0  0  0  0  0  0  0  0  0  0  0  0
    6.4517  -13.7723   18.1174 O   0  0  0  0  0  0  0  0  0  0  0  0
    7.2163  -14.8901   20.2897 O   0  0  0  0  0  0  0  0  0  0  0  0
    8.7323  -14.4058   20.2848 P   0  0  1  0  0  5  0  0  0  0  0  0
    9.5453  -15.2029   19.2807 O   0  0  0  0  0  0  0  0  0  0  0  0
    8.7845  -12.8972   20.1420 O   0  0  0  0  0  0  0  0  0  0  0  0
    9.1420  -14.8343   21.8056 O   0  0  0  0  0  0  0  0  0  0  0  0
    9.1398  -13.8231   22.7873 C   0  0  0  0  0  0  0  0  0  0  0  0
    7.9182  -12.9239   22.4939 C   0  0  1  0  0  0  0  0  0  0  0  0
    6.8643  -13.2058   23.2687 O   0  0  0  0  0  0  0  0  0  0  0  0
    8.2668  -11.4541   22.7543 C   0  0  1  0  0  0  0  0  0  0  0  0
    8.7722  -10.8968   21.6153 O   0  0  0  0  0  0  0  0  0  0  0  0
    6.9174  -10.8724   23.1529 C   0  0  1  0  0  0  0  0  0  0  0  0
    6.1477  -10.5720   21.8906 O   0  0  0  0  0  0  0  0  0  0  0  0
    6.2106  -11.7914   23.7498 C   0  0  2  0  0  0  0  0  0  0  0  0
    6.1677  -11.9952   25.1915 N   0  0  0  0  0  4  0  0  0  0  0  0
    5.4979  -11.2942   26.1198 C   0  0  0  0  0  0  0  0  0  0  0  0
    5.7755  -11.8139   27.3406 N   0  0  0  0  0  0  0  0  0  0  0  0
    6.6870  -12.8136   27.1629 C   0  0  0  0  0  0  0  0  0  0  0  0
    7.3356  -13.6752   28.0246 C   0  0  0  0  0  0  0  0  0  0  0  0
    7.2436  -13.6680   29.2330 O   0  0  0  0  0  0  0  0  0  0  0  0
    8.1696  -14.5528   27.5036 N   0  0  0  0  0  4  0  0  0  0  0  0
    8.3756  -14.6244   26.1637 C   0  0  0  0  0  0  0  0  0  0  0  0
    9.3049  -15.6257   25.7404 N   0  0  0  0  0  0  0  0  0  0  0  0
    7.7617  -13.8121   25.2912 N   0  0  0  0  0  0  0  0  0  0  0  0
    6.9067  -12.9040   25.8345 C   0  0  0  0  0  0  0  0  0  0  0  0
    2.2032  -15.9044   21.7687 H   0  0  0  0  0  0  0  0  0  0  0  0
    1.2292  -14.2175   20.0941 H   0  0  0  0  0  0  0  0  0  0  0  0
    5.1978  -13.8806   21.2146 H   0  0  0  0  0  0  0  0  0  0  0  0
    4.5753  -13.0244   19.7508 H   0  0  0  0  0  0  0  0  0  0  0  0
    5.7414  -13.7030   17.4606 H   0  0  0  0  0  0  0  0  0  0  0  0
    8.5402  -12.6500   19.2369 H   0  0  0  0  0  0  0  0  0  0  0  0
   10.0423  -13.2509   22.7290 H   0  0  0  0  0  0  0  0  0  0  0  0
    9.0832  -14.2408   23.7704 H   0  0  0  0  0  0  0  0  0  0  0  0
    7.6665  -13.1045   21.4697 H   0  0  0  0  0  0  0  0  0  0  0  0
    9.0144  -11.2853   23.5012 H   0  0  0  0  0  0  0  0  0  0  0  0
    8.1397  -11.0143   20.8891 H   0  0  0  0  0  0  0  0  0  0  0  0
    7.0777  -10.0154   23.7720 H   0  0  0  0  0  0  0  0  0  0  0  0
    6.0378  -11.3873   21.3779 H   0  0  0  0  0  0  0  0  0  0  0  0
    5.2240  -11.4649   23.4934 H   0  0  0  0  0  0  0  0  0  0  0  0
    4.8749  -10.4925   25.9352 H   0  0  0  0  0  0  0  0  0  0  0  0
    8.6535  -15.1696   28.0989 H   0  0  0  0  0  0  0  0  0  0  0  0
    9.7391  -16.2066   26.4061 H   0  0  0  0  0  0  0  0  0  0  0  0
    9.5107  -15.7342   24.7833 H   0  0  0  0  0  0  0  0  0  0  0  0
  1  2  2  0
  1  3  1  1
  1  4  1  0
  1  5  1  0
  5  6  1  0
  6  7  2  0
  6  8  1  6
  6  9  1  0
 10  9  1  6
 10 11  2  0
 10 12  1  0
 10 13  1  0
 13 14  1  0
 15 14  1  0
 15 16  1  0
 15 17  1  0
 17 18  1  0
 17 19  1  0
 19 20  1  0
 16 21  1  0
 19 21  1  0
 21 22  1  0
 22 23  4  0
 23 24  4  0
 24 25  4  0
 25 26  4  0
 26 27  2  0
 26 28  4  0
 28 29  4  0
 29 30  1  0
 29 31  4  0
 22 32  4  0
 25 32  4  0
 31 32  4  0
  3 33  1  0
  4 34  1  0
  5 35  1  0
  5 36  1  0
  8 37  1  0
 12 38  1  0
 14 39  1  0
 14 40  1  0
 15 41  1  6
 17 42  1  1
 18 43  1  0
 19 44  1  1
 20 45  1  0
 21 46  1  6
 23 47  1  0
 28 48  1  0
 30 49  1  0
 30 50  1  0
M  CHG  2  22   1  28   1
M  END
