7ZF0_DHR_A_508
     RDKit          3D

 11 11  0  0  0  0  0  0  0  0999 V2000
   32.2510   57.5160   51.4300 N   0  0  0  0  0  0  0  0  0  0  0  0
   32.9380   57.2320   50.5660 C   0  0  0  0  0  0  0  0  0  0  0  0
   33.5380   57.7920   48.2440 C   0  0  0  0  0  0  0  0  0  0  0  0
   34.5930   58.2800   47.5110 C   0  0  0  0  0  0  0  0  0  0  0  0
   32.2440   58.1840   47.9410 C   0  0  0  0  0  0  0  0  0  0  0  0
   31.9860   59.0480   46.9060 C   0  0  0  0  0  0  0  0  0  0  0  0
   34.3430   59.1440   46.4870 C   0  0  0  0  0  0  0  0  0  0  0  0
   33.0530   59.5350   46.1580 C   0  0  0  0  0  0  0  0  0  0  0  0
   32.8260   60.4100   45.1170 O   0  0  0  0  0  0  0  0  0  0  0  0
   33.8310   56.8280   49.3860 C   0  0  2  0  0  0  0  0  0  0  0  0
   33.5660   55.4780   49.0630 O   0  0  0  0  0  0  0  0  0  0  0  0
  1  2  3  0
  3  4  2  0
  3  5  1  0
  5  6  2  0
  4  7  1  0
  6  8  1  0
  7  8  2  0
  8  9  1  0
  2 10  1  0
  3 10  1  0
 10 11  1  6
M  END
$$$$
