7R9N_F97_B_301
     RDKit          3D

 31 35  0  0  0  0  0  0  0  0999 V2000
  -41.3008  -72.4669  261.8461 C   0  0  0  0  0  0  0  0  0  0  0  0
  -41.2633  -72.2780  263.2180 C   0  0  0  0  0  0  0  0  0  0  0  0
  -41.5540  -71.0253  263.7191 C   0  0  0  0  0  0  0  0  0  0  0  0
  -41.6303  -71.3797  261.0490 C   0  0  0  0  0  0  0  0  0  0  0  0
  -41.2639  -73.1143  259.7794 N   0  0  0  0  0  0  0  0  0  0  0  0
  -41.0286  -71.5556  267.4106 C   0  0  0  0  0  0  0  0  0  0  0  0
  -39.1142  -75.4183  264.5686 C   0  0  0  0  0  0  0  0  0  0  0  0
  -39.1567  -76.9294  264.6367 C   0  0  0  0  0  0  0  0  0  0  0  0
  -38.7023  -75.9972  266.8112 C   0  0  0  0  0  0  0  0  0  0  0  0
  -39.1754  -71.8568  270.2858 C   0  0  0  0  0  0  0  0  0  0  0  0
  -39.5731  -75.3743  260.5950 C   0  0  0  0  0  0  0  0  0  0  0  0
  -40.7153  -74.8449  261.4321 C   0  0  2  0  0  0  0  0  0  0  0  0
  -41.9501  -75.7146  261.2901 C   0  0  0  0  0  0  0  0  0  0  0  0
  -41.0865  -73.5009  261.0230 N   0  0  0  0  0  0  0  0  0  0  0  0
  -41.8719  -69.9847  262.9157 N   0  0  0  0  0  0  0  0  0  0  0  0
  -41.9173  -70.1376  261.5667 C   0  0  0  0  0  0  0  0  0  0  0  0
  -41.6018  -71.8123  259.7307 C   0  0  0  0  0  0  0  0  0  0  0  0
  -41.5252  -70.7951  265.1228 N   0  0  0  0  0  0  0  0  0  0  0  0
  -40.9888  -71.7390  266.0418 C   0  0  0  0  0  0  0  0  0  0  0  0
  -40.5080  -72.4731  268.2822 C   0  0  0  0  0  0  0  0  0  0  0  0
  -39.9388  -73.5933  267.7528 N   0  0  0  0  0  0  0  0  0  0  0  0
  -39.8873  -73.7955  266.4259 C   0  0  0  0  0  0  0  0  0  0  0  0
  -40.4083  -72.8741  265.5939 N   0  0  0  0  0  0  0  0  0  0  0  0
  -39.2750  -74.9918  265.9631 N   0  0  0  0  0  0  0  0  0  0  0  0
  -38.7606  -77.2759  266.0343 C   0  0  2  0  0  0  0  0  0  0  0  0
  -37.5376  -77.9234  265.9773 F   0  0  0  0  0  0  0  0  0  0  0  0
  -39.6789  -78.1643  266.5595 F   0  0  0  0  0  0  0  0  0  0  0  0
  -40.5311  -72.3143  269.7415 C   0  0  1  0  0  0  0  0  0  0  0  0
  -39.3709  -72.2010  271.7661 C   0  0  0  0  0  0  0  0  0  0  0  0
  -40.0144  -73.4801  271.7603 N   0  0  0  0  0  0  0  0  0  0  0  0
  -40.6960  -73.6217  270.4949 C   0  0  0  0  0  0  0  0  0  0  0  0
  1  2  2  0
  2  3  1  0
  1  4  1  0
  7  8  1  0
 12 11  1  6
 12 13  1  0
  1 14  1  0
  5 14  1  0
 12 14  1  0
  3 15  2  0
 15 16  1  0
  4 16  2  0
  4 17  1  0
  5 17  2  0
  3 18  1  0
 18 19  1  0
  6 19  2  0
  6 20  1  0
 20 21  2  0
 21 22  1  0
 19 23  1  0
 22 23  2  0
 22 24  1  0
  9 24  1  0
  7 24  1  0
  9 25  1  0
  8 25  1  0
 25 26  1  6
 25 27  1  0
 10 28  1  0
 28 20  1  6
 10 29  1  0
 29 30  1  0
 28 31  1  0
 30 31  1  0
M  END
$$$$
