7NU0_DCL_A_1004
     RDKit          3D

  8  7  0  0  0  0  0  0  0  0999 V2000
   24.1350  -14.2160  -26.4340 N   0  0  0  0  0  0  0  0  0  0  0  0
   22.9750  -13.3140  -26.4210 C   0  0  2  0  0  0  0  0  0  0  0  0
   21.7750  -14.1210  -25.9450 C   0  0  0  0  0  0  0  0  0  0  0  0
   22.7250  -12.7100  -27.7980 C   0  0  0  0  0  0  0  0  0  0  0  0
   23.7690  -11.7100  -28.2790 C   0  0  0  0  0  0  0  0  0  0  0  0
   23.4570  -11.3270  -29.7170 C   0  0  0  0  0  0  0  0  0  0  0  0
   23.7770  -10.4640  -27.3790 C   0  0  0  0  0  0  0  0  0  0  0  0
   20.7940  -13.2680  -25.3780 O   0  0  0  0  0  0  0  0  0  0  0  0
  2  1  1  6
  2  3  1  0
  2  4  1  0
  4  5  1  0
  5  6  1  0
  5  7  1  0
  3  8  1  0
M  END
$$$$
