
     RDKit          3D

 18 19  0  0  0  0  0  0  0  0999 V2000
   70.6845   38.0698   21.2822 O   0  0  0  0  0  0  0  0  0  0  0  0
   70.0103   37.2030   22.1854 C   0  0  0  0  0  0  0  0  0  0  0  0
   70.2391   35.7313   21.8375 C   0  0  1  0  0  0  0  0  0  0  0  0
   68.9574   35.1269   21.5263 O   0  0  0  0  0  0  0  0  0  0  0  0
   69.0914   34.4472   20.2545 C   0  0  1  0  0  0  0  0  0  0  0  0
   67.8153   34.4130   19.5457 N   0  0  0  0  0  0  0  0  0  0  0  0
   66.9520   35.4846   19.5280 C   0  0  0  0  0  0  0  0  0  0  0  0
   65.8202   35.4432   18.8273 C   0  0  0  0  0  0  0  0  0  0  0  0
   65.5679   34.1937   18.0847 C   0  0  0  0  0  0  0  0  0  0  0  0
   66.3800   33.1846   18.0938 N   0  0  0  0  0  0  0  0  0  0  0  0
   67.5425   33.2478   18.8227 C   0  0  0  0  0  0  0  0  0  0  0  0
   68.3259   32.3012   18.8430 O   0  0  0  0  0  0  0  0  0  0  0  0
   64.4310   34.0689   17.3353 N   0  0  0  0  0  0  0  0  0  0  0  0
   70.2168   35.1718   19.5145 C   0  0  0  0  0  0  0  0  0  0  0  0
   69.7702   36.2950   18.9025 F   0  0  0  0  0  0  0  0  0  0  0  0
   70.8484   34.4284   18.5822 F   0  0  0  0  0  0  0  0  0  0  0  0
   71.1707   35.5191   20.6398 C   0  0  2  0  0  0  0  0  0  0  0  0
   72.0574   34.4194   20.9238 O   0  0  0  0  0  0  0  0  0  0  0  0
  1  2  1  0
  3  2  1  6
  3  4  1  0
  4  5  1  0
  5  6  1  6
  6  7  4  0
  7  8  4  0
  8  9  4  0
  9 10  4  0
  6 11  4  0
 10 11  4  0
 11 12  2  0
  9 13  1  0
  5 14  1  0
 14 15  1  0
 14 16  1  0
  3 17  1  0
 14 17  1  0
 17 18  1  1
M  END
