7OZC_G6S_AAA_601
     RDKit          3D

 16 16  0  0  0  0  0  0  0  0999 V2000
   20.7350    4.3464   25.9737 C   0  0  2  0  0  0  0  0  0  0  0  0
   20.0391    5.6864   25.9396 C   0  0  1  0  0  0  0  0  0  0  0  0
   20.3633    6.2754   24.5697 C   0  0  2  0  0  0  0  0  0  0  0  0
   21.8035    6.1483   24.2006 C   0  0  2  0  0  0  0  0  0  0  0  0
   22.5095    4.9711   24.7894 C   0  0  1  0  0  0  0  0  0  0  0  0
   23.9991    5.2423   24.7126 C   0  0  0  0  0  0  0  0  0  0  0  0
   20.3172    3.5557   27.0354 O   0  0  0  0  0  0  0  0  0  0  0  0
   18.6608    5.5642   26.0631 O   0  0  0  0  0  0  0  0  0  0  0  0
   22.4293    7.3484   24.5469 O   0  0  0  0  0  0  0  0  0  0  0  0
   22.1076    4.6537   26.0757 O   0  0  0  0  0  0  0  0  0  0  0  0
   24.4139    5.3923   26.0470 O   0  0  0  0  0  0  0  0  0  0  0  0
   26.0703    5.6203   26.1501 S   0  0  1  0  0  0  0  0  0  0  0  0
   26.8098    4.4902   25.5332 O   0  0  0  0  0  0  0  0  0  0  0  0
   26.4413    6.9597   25.5467 O   0  0  0  0  0  0  0  0  0  0  0  0
   26.4467    5.7449   27.7896 O   0  0  0  0  0  0  0  0  0  0  0  0
   19.9370    7.6100   24.5140 O   0  0  0  0  0  0  0  0  0  0  0  0
  1  2  1  0
  2  3  1  0
  3  4  1  0
  4  5  1  0
  5  6  1  1
  1  7  1  1
  2  8  1  6
  4  9  1  1
  1 10  1  0
  5 10  1  0
  6 11  1  0
 11 12  1  0
 12 13  2  0
 12 14  2  0
 12 15  1  1
  3 16  1  1
M  END
$$$$
