7OKC_VFE_A_1001
     RDKit          3D

 49 51  0  0  0  0  0  0  0  0999 V2000
    7.0380    0.1075  -10.0149 C   0  0  0  0  0  0  0  0  0  0  0  0
    5.6786   -0.1870  -10.1384 C   0  0  0  0  0  0  0  0  0  0  0  0
    9.2360   -3.4513   -9.6565 C   0  0  0  0  0  0  0  0  0  0  0  0
    7.6655   -3.5771   -7.8237 C   0  0  0  0  0  0  0  0  0  0  0  0
    9.1247   -4.8307   -9.8489 C   0  0  0  0  0  0  0  0  0  0  0  0
    7.5459   -4.9551   -8.0203 C   0  0  0  0  0  0  0  0  0  0  0  0
    7.9732   -0.9276   -9.9330 C   0  0  0  0  0  0  0  0  0  0  0  0
    5.2522   -1.5171  -10.1750 C   0  0  0  0  0  0  0  0  0  0  0  0
    8.3506   -9.1230   -9.0948 C   0  0  0  0  0  0  0  0  0  0  0  0
    7.2152   -7.6389  -10.0600 C   0  0  0  0  0  0  0  0  0  0  0  0
    8.4827   -2.8050   -8.6635 C   0  0  0  0  0  0  0  0  0  0  0  0
    8.2595   -5.5967   -9.0466 C   0  0  0  0  0  0  0  0  0  0  0  0
    7.5525   -2.2641   -9.9479 C   0  0  0  0  0  0  0  0  0  0  0  0
    6.1815   -2.5597  -10.0723 C   0  0  0  0  0  0  0  0  0  0  0  0
    9.3154    1.5244  -10.8654 C   0  0  0  0  0  0  0  0  0  0  0  0
    9.7962   -1.1722  -10.6884 C   0  0  0  0  0  0  0  0  0  0  0  0
    8.9723    1.6306  -13.3642 C   0  0  0  0  0  0  0  0  0  0  0  0
    8.6067   -1.3146   -8.4519 C   0  0  0  0  0  0  0  0  0  0  0  0
    8.4334    0.7829   -9.9053 C   0  0  0  0  0  0  0  0  0  0  0  0
   10.0847   -2.6434  -10.7357 C   0  0  0  0  0  0  0  0  0  0  0  0
    7.3446   -8.9774   -9.9829 N   0  0  0  0  0  0  0  0  0  0  0  0
    8.8141   -7.9418   -8.6457 N   0  0  0  0  0  0  0  0  0  0  0  0
    8.1002   -7.0139   -9.2588 N   0  0  0  0  0  4  0  0  0  0  0  0
    9.5475    1.0050  -12.1803 N   0  0  0  0  0  0  0  0  0  0  0  0
    8.9052   -0.5984   -9.7077 N   0  0  0  0  0  0  0  0  0  0  0  0
    9.8719    2.5946  -10.4979 O   0  0  0  0  0  0  0  0  0  0  0  0
   10.3136   -0.4339  -11.5699 O   0  0  0  0  0  0  0  0  0  0  0  0
    8.7867   -3.5722   -9.8491 S   0  0  0  0  0  0  0  0  0  0  0  0
    5.5982   -4.2186  -10.0931 Cl  0  0  0  0  0  0  0  0  0  0  0  0
    7.3681    1.1378   -9.9878 H   0  0  0  0  0  0  0  0  0  0  0  0
    4.9544    0.6148  -10.2023 H   0  0  0  0  0  0  0  0  0  0  0  0
    9.9280   -2.8960  -10.2748 H   0  0  0  0  0  0  0  0  0  0  0  0
    7.1313   -3.1197   -7.0022 H   0  0  0  0  0  0  0  0  0  0  0  0
    9.7211   -5.2900  -10.6236 H   0  0  0  0  0  0  0  0  0  0  0  0
    6.8895   -5.5197   -7.3709 H   0  0  0  0  0  0  0  0  0  0  0  0
    9.0259   -0.6896   -9.8534 H   0  0  0  0  0  0  0  0  0  0  0  0
    4.1962   -1.7366  -10.2683 H   0  0  0  0  0  0  0  0  0  0  0  0
    8.7377  -10.0815   -8.7759 H   0  0  0  0  0  0  0  0  0  0  0  0
    6.4741   -7.1484  -10.6754 H   0  0  0  0  0  0  0  0  0  0  0  0
    9.3299    2.6786  -13.4476 H   0  0  0  0  0  0  0  0  0  0  0  0
    9.2809    1.0726  -14.2731 H   0  0  0  0  0  0  0  0  0  0  0  0
    7.8640    1.6198  -13.2952 H   0  0  0  0  0  0  0  0  0  0  0  0
    7.6600   -0.9347   -8.0134 H   0  0  0  0  0  0  0  0  0  0  0  0
    9.3855   -1.0925   -7.6898 H   0  0  0  0  0  0  0  0  0  0  0  0
    7.3939    0.7968  -10.2982 H   0  0  0  0  0  0  0  0  0  0  0  0
    8.3889    1.3111   -8.9326 H   0  0  0  0  0  0  0  0  0  0  0  0
   11.0713   -2.8884  -10.3096 H   0  0  0  0  0  0  0  0  0  0  0  0
   10.0886   -2.9734  -11.7954 H   0  0  0  0  0  0  0  0  0  0  0  0
   10.1407    0.1540  -12.2997 H   0  0  0  0  0  0  0  0  0  0  0  0
  1  2  4  0
  3  5  4  0
  4  6  4  0
  1  7  4  0
  2  8  4  0
  3 11  4  0
  4 11  4  0
  5 12  4  0
  6 12  4  0
  7 13  4  0
  8 14  4  0
 13 14  4  0
 11 18  1  0
 15 19  1  0
 16 20  1  0
  9 21  4  0
 10 21  4  0
  9 22  4  0
 22 23  4  0
 10 23  4  0
 12 23  1  0
 17 24  1  0
 15 24  1  0
 19 25  1  0
 18 25  1  0
 16 25  1  0
 15 26  2  0
 16 27  2  0
 20 28  1  0
 13 28  1  0
 14 29  1  0
  1 30  1  0
  2 31  1  0
  3 32  1  0
  4 33  1  0
  5 34  1  0
  6 35  1  0
  7 36  1  0
  8 37  1  0
  9 38  1  0
 10 39  1  0
 17 40  1  0
 17 41  1  0
 17 42  1  0
 18 43  1  0
 18 44  1  0
 19 45  1  0
 19 46  1  0
 20 47  1  0
 20 48  1  0
 24 49  1  0
M  CHG  1  23   1
M  END
