7XQZ_FPF_A_601
     RDKit          3D

 25 24  0  0  0  0  0  0  0  0999 V2000
  -21.1059    1.3298  -19.2940 C   0  0  0  0  0  0  0  0  0  0  0  0
  -21.8208    2.4096  -19.8548 O   0  0  0  0  0  0  0  0  0  0  0  0
  -19.9324    1.9204  -18.6158 C   0  0  0  0  0  0  0  0  0  0  0  0
  -19.9681    3.2347  -18.2827 F   0  0  0  0  0  0  0  0  0  0  0  0
  -18.8674    1.1733  -18.3412 C   0  0  0  0  0  0  0  0  0  0  0  0
  -17.6405    1.8268  -17.8062 C   0  0  0  0  0  0  0  0  0  0  0  0
  -18.8872   -0.2976  -18.5603 C   0  0  0  0  0  0  0  0  0  0  0  0
  -18.1378   -0.7190  -19.8093 C   0  0  0  0  0  0  0  0  0  0  0  0
  -17.3629   -1.9521  -19.6006 C   0  0  0  0  0  0  0  0  0  0  0  0
  -17.7586   -3.1273  -20.0787 C   0  0  0  0  0  0  0  0  0  0  0  0
  -17.2644   -3.5776  -21.4100 C   0  0  0  0  0  0  0  0  0  0  0  0
  -18.6876   -3.9797  -19.2847 C   0  0  0  0  0  0  0  0  0  0  0  0
  -18.7969   -5.3114  -19.9845 C   0  0  0  0  0  0  0  0  0  0  0  0
  -19.6223   -6.2798  -19.2292 C   0  0  0  0  0  0  0  0  0  0  0  0
  -19.8825   -7.5135  -19.6220 C   0  0  0  0  0  0  0  0  0  0  0  0
  -19.2831   -8.0894  -20.8810 C   0  0  0  0  0  0  0  0  0  0  0  0
  -20.8039   -8.3742  -18.7918 C   0  0  0  0  0  0  0  0  0  0  0  0
  -23.1934    1.7916  -20.6128 P   0  0  1  0  0  5  0  0  0  0  0  0
  -24.1569    1.1840  -19.5997 O   0  0  0  0  0  0  0  0  0  0  0  0
  -23.9302    3.0809  -21.4252 O   0  0  0  0  0  0  0  0  0  0  0  0
  -22.7699    0.5703  -21.7248 O   0  0  0  0  0  0  0  0  0  0  0  0
  -23.4586   -0.8951  -21.2774 P   0  0  1  0  0  5  0  0  0  0  0  0
  -24.0759   -1.6539  -22.6340 O   0  0  0  0  0  0  0  0  0  0  0  0
  -22.2561   -1.8612  -20.5866 O   0  0  0  0  0  0  0  0  0  0  0  0
  -24.5560   -0.6863  -20.2595 O   0  0  0  0  0  0  0  0  0  0  0  0
  1  2  1  1
  1  3  1  0
  3  4  1  0
  3  5  2  0
  6  5  1  1
  7  5  1  1
  7  8  1  0
  8  9  1  6
  9 10  2  0
 11 10  1  6
 12 10  1  6
 12 13  1  0
 13 14  1  1
 14 15  2  0
 16 15  1  1
 17 15  1  1
 18  2  1  0
 18 19  2  0
 18 20  1  6
 18 21  1  0
 21 22  1  0
 22 23  1  6
 22 24  1  0
 22 25  2  0
M  END
$$$$
