1HVY_D16_D_417
     RDKit          3D

 32 34  0  0  0  0  0  0  0  0999 V2000
    7.4037  -10.2642  -16.3064 N   0  0  0  0  0  0  0  0  0  0  0  0
    6.9046   -9.2525  -17.0562 C   0  0  0  0  0  0  0  0  0  0  0  0
    7.8067   -8.4381  -17.9049 C   0  0  0  0  0  0  0  0  0  0  0  0
    5.5875   -8.9939  -17.0254 N   0  0  0  0  0  0  0  0  0  0  0  0
    4.7303   -9.7022  -16.2745 C   0  0  0  0  0  0  0  0  0  0  0  0
    3.4861   -9.4321  -16.2669 O   0  0  0  0  0  0  0  0  0  0  0  0
    5.2365  -10.7475  -15.4981 C   0  0  0  0  0  0  0  0  0  0  0  0
    4.4039  -11.5116  -14.7064 C   0  0  0  0  0  0  0  0  0  0  0  0
    4.8878  -12.5582  -13.9252 C   0  0  0  0  0  0  0  0  0  0  0  0
    6.2605  -12.8282  -13.9566 C   0  0  0  0  0  0  0  0  0  0  0  0
    7.0981  -12.0625  -14.7507 C   0  0  0  0  0  0  0  0  0  0  0  0
    6.5995  -11.0139  -15.5310 C   0  0  0  0  0  0  0  0  0  0  0  0
    3.9579  -13.3680  -13.0806 C   0  0  0  0  0  0  0  0  0  0  0  0
    4.3372  -14.7539  -13.1944 N   0  0  0  0  0  0  0  0  0  0  0  0
    2.4449  -16.5707  -16.3046 C   0  0  0  0  0  0  0  0  0  0  0  0
    2.7402  -14.8574  -15.5761 S   0  0  0  0  0  0  0  0  0  0  0  0
    3.7518  -15.5646  -14.1995 C   0  0  0  0  0  0  0  0  0  0  0  0
    3.7611  -16.9088  -14.4143 C   0  0  0  0  0  0  0  0  0  0  0  0
    3.1028  -17.3993  -15.4720 C   0  0  0  0  0  0  0  0  0  0  0  0
    1.6701  -16.7619  -17.4828 C   0  0  0  0  0  0  0  0  0  0  0  0
    1.5105  -17.9590  -17.9031 O   0  0  0  0  0  0  0  0  0  0  0  0
    1.0868  -15.6671  -18.1793 N   0  0  0  0  0  0  0  0  0  0  0  0
    0.3547  -15.9039  -19.4475 C   0  0  1  0  0  0  0  0  0  0  0  0
   -1.0945  -15.7659  -19.2206 C   0  0  0  0  0  0  0  0  0  0  0  0
   -1.6632  -16.6841  -18.2076 C   0  0  0  0  0  0  0  0  0  0  0  0
   -3.0930  -16.4574  -17.9517 C   0  0  0  0  0  0  0  0  0  0  0  0
   -3.8145  -17.2603  -17.2596 O   0  0  0  0  0  0  0  0  0  0  0  0
   -3.6707  -15.3066  -18.4987 O   0  0  0  0  0  0  0  0  0  0  0  0
    0.9411  -15.0983  -20.4788 C   0  0  0  0  0  0  0  0  0  0  0  0
    1.7284  -14.1427  -20.1674 O   0  0  0  0  0  0  0  0  0  0  0  0
    0.7494  -15.2522  -21.8659 O   0  0  0  0  0  0  0  0  0  0  0  0
    5.2990  -15.3668  -12.3208 C   0  0  0  0  0  0  0  0  0  0  0  0
  1  2  1  0
  3  2  1  6
  2  4  2  0
  4  5  1  0
  5  6  2  0
  5  7  1  0
  7  8  1  0
  8  9  2  0
  9 10  1  0
 10 11  2  0
  1 12  1  0
  7 12  2  0
 11 12  1  0
  9 13  1  0
 13 14  1  6
 15 16  1  0
 14 17  1  0
 16 17  1  0
 17 18  2  0
 15 19  2  0
 18 19  1  0
 15 20  1  0
 20 21  2  0
 20 22  1  0
 23 22  1  1
 23 24  1  0
 24 25  1  1
 25 26  1  6
 26 27  2  0
 26 28  1  0
 23 29  1  0
 29 30  2  0
 29 31  1  0
 32 14  1  1
M  END
$$$$
