7M3H_YPV_A_501
     RDKit          3D

 24 25  0  0  0  0  0  0  0  0999 V2000
  -10.7005   -4.1380   18.8334 C   0  0  0  0  0  0  0  0  0  0  0  0
  -10.3139   -3.5583   17.6487 C   0  0  0  0  0  0  0  0  0  0  0  0
  -11.0357   -3.7341   16.4711 C   0  0  0  0  0  0  0  0  0  0  0  0
   -8.9890   -7.5778   20.5370 C   0  0  0  0  0  0  0  0  0  0  0  0
   -8.6205  -10.0635   20.1091 C   0  0  0  0  0  0  0  0  0  0  0  0
   -8.3533   -8.5905   19.8486 C   0  0  0  0  0  0  0  0  0  0  0  0
   -7.4920   -8.2037   18.8703 C   0  0  0  0  0  0  0  0  0  0  0  0
   -7.2330   -6.9124   18.5436 C   0  0  0  0  0  0  0  0  0  0  0  0
   -7.8949   -5.9432   19.2633 C   0  0  0  0  0  0  0  0  0  0  0  0
   -8.7898   -6.2197   20.3073 C   0  0  0  0  0  0  0  0  0  0  0  0
  -12.1618   -4.5212   16.4130 C   0  0  0  0  0  0  0  0  0  0  0  0
  -12.9286   -4.6713   15.1408 C   0  0  0  0  0  0  0  0  0  0  0  0
  -14.0522   -3.6611   14.9805 C   0  0  0  0  0  0  0  0  0  0  0  0
  -13.7716   -2.1920   15.4108 C   0  0  0  0  0  0  0  0  0  0  0  0
  -14.8763   -1.1513   14.9135 C   0  0  0  0  0  0  0  0  0  0  0  0
  -12.5709   -5.1178   17.6091 C   0  0  0  0  0  0  0  0  0  0  0  0
  -11.8323   -4.9318   18.7919 C   0  0  0  0  0  0  0  0  0  0  0  0
  -10.0202   -3.9089   20.0197 N   0  0  0  0  0  0  0  0  0  0  0  0
   -9.1650  -10.4198   21.2187 O   0  0  0  0  0  0  0  0  0  0  0  0
   -6.8263   -9.1922   18.1358 O   0  0  0  0  0  0  0  0  0  0  0  0
  -10.7343   -5.4416   21.7883 O   0  0  0  0  0  0  0  0  0  0  0  0
   -8.6332   -4.2235   21.9856 O   0  0  0  0  0  0  0  0  0  0  0  0
   -8.3553  -10.8779   19.1873 O   0  0  0  0  0  0  0  0  0  0  0  0
   -9.5661   -4.9516   21.1287 S   0  0  1  0  0  0  0  0  0  0  0  0
  1  2  2  0
  2  3  1  0
  4  6  2  0
  5  6  1  0
  6  7  1  0
  7  8  2  0
  8  9  1  0
  4 10  1  0
  9 10  2  0
  3 11  2  0
 11 12  1  0
 12 13  1  0
 13 14  1  0
 14 15  1  0
 11 16  1  0
 16 17  2  0
  1 17  1  0
  1 18  1  0
  5 19  1  0
  7 20  1  0
  5 23  2  0
 21 24  2  0
 22 24  2  0
 24 18  1  6
 10 24  1  0
M  END
