7B94_ANP_A_401
     RDKit          3D

 31 33  0  0  0  0  0  0  0  0999 V2000
  -22.2105   -1.9247    1.2406 P   0  0  2  0  0  0  0  0  0  0  0  0
  -22.3156   -2.7771    2.4153 O   0  0  0  0  0  0  0  0  0  0  0  0
  -22.8104   -2.7313    0.0338 O   0  0  0  0  0  0  0  0  0  0  0  0
  -20.6730   -1.6515    0.9997 O   0  0  0  0  0  0  0  0  0  0  0  0
  -24.1150    0.0643    2.4614 P   0  0  1  0  0  0  0  0  0  0  0  0
  -23.4323    0.3973    3.6987 O   0  0  0  0  0  0  0  0  0  0  0  0
  -25.0148    1.2777    2.0034 O   0  0  0  0  0  0  0  0  0  0  0  0
  -23.0416   -0.4776    1.3244 N   0  0  0  0  0  0  0  0  0  0  0  0
  -25.0821   -2.2871    3.7833 P   0  0  2  0  0  0  0  0  0  0  0  0
  -24.4878   -1.7942    5.0369 O   0  0  0  0  0  0  0  0  0  0  0  0
  -24.3410   -3.4544    3.1291 O   0  0  0  0  0  0  0  0  0  0  0  0
  -25.1495   -1.1147    2.7067 O   0  0  0  0  0  0  0  0  0  0  0  0
  -26.5604   -2.7150    4.0337 O   0  0  0  0  0  0  0  0  0  0  0  0
  -27.6495   -2.1425    3.2896 C   0  0  0  0  0  0  0  0  0  0  0  0
  -28.8231   -2.1101    4.2244 C   0  0  1  0  0  0  0  0  0  0  0  0
  -28.6346   -3.0880    5.2669 O   0  0  0  0  0  0  0  0  0  0  0  0
  -28.9751   -0.8016    4.9848 C   0  0  1  0  0  0  0  0  0  0  0  0
  -29.6051    0.1774    4.1696 O   0  0  0  0  0  0  0  0  0  0  0  0
  -29.8160   -1.2282    6.1856 C   0  0  1  0  0  0  0  0  0  0  0  0
  -31.1899   -1.2441    5.8383 O   0  0  0  0  0  0  0  0  0  0  0  0
  -29.3411   -2.6683    6.4220 C   0  0  2  0  0  0  0  0  0  0  0  0
  -28.4908   -2.8330    7.5945 N   0  0  0  0  0  0  0  0  0  0  0  0
  -27.1223   -2.8761    7.6431 C   0  0  0  0  0  0  0  0  0  0  0  0
  -26.6350   -3.0146    8.8530 N   0  0  0  0  0  0  0  0  0  0  0  0
  -27.7651   -3.0676    9.6579 C   0  0  0  0  0  0  0  0  0  0  0  0
  -27.9337   -3.2027   11.0536 C   0  0  0  0  0  0  0  0  0  0  0  0
  -26.9194   -3.2384   11.9156 N   0  0  0  0  0  0  0  0  0  0  0  0
  -29.1978   -3.2369   11.5400 N   0  0  0  0  0  0  0  0  0  0  0  0
  -30.2230   -3.1105   10.6841 C   0  0  0  0  0  0  0  0  0  0  0  0
  -30.1863   -2.9718    9.3503 N   0  0  0  0  0  0  0  0  0  0  0  0
  -28.9157   -2.9601    8.8969 C   0  0  0  0  0  0  0  0  0  0  0  0
  1  2  2  0
  1  3  1  6
  1  4  1  0
  5  6  2  0
  5  7  1  6
  1  8  1  0
  5  8  1  0
  9 10  2  0
  9 11  1  6
  5 12  1  0
  9 12  1  0
  9 13  1  0
 13 14  1  0
 15 14  1  6
 15 16  1  0
 15 17  1  0
 17 18  1  6
 17 19  1  0
 19 20  1  6
 16 21  1  0
 19 21  1  0
 21 22  1  1
 22 23  1  0
 23 24  2  0
 24 25  1  0
 25 26  2  0
 26 27  1  0
 26 28  1  0
 28 29  2  0
 29 30  1  0
 22 31  1  0
 25 31  1  0
 30 31  2  0
M  END
