
     RDKit          3D

 20 22  0  0  0  0  0  0  0  0999 V2000
   19.9781   12.7540   65.0638 C   0  0  0  0  0  0  0  0  0  0  0  0
   19.3790   14.0039   64.8905 C   0  0  0  0  0  0  0  0  0  0  0  0
   20.1575   15.1657   64.8605 C   0  0  0  0  0  0  0  0  0  0  0  0
   19.5142   16.5119   64.7080 C   0  0  0  0  0  0  0  0  0  0  0  0
   21.5420   15.0596   65.0323 C   0  0  0  0  0  0  0  0  0  0  0  0
   22.1417   13.8100   65.2058 C   0  0  0  0  0  0  0  0  0  0  0  0
   21.3663   12.6443   65.2182 C   0  0  0  0  0  0  0  0  0  0  0  0
   22.0103   11.2919   65.4240 C   0  0  0  0  0  0  0  0  0  0  0  0
   23.2961   11.1586   64.6192 C   0  0  2  0  0  0  0  0  0  0  0  0
   23.1345   11.1491   63.1366 C   0  0  0  0  0  0  0  0  0  0  0  0
   22.6127   12.2828   62.6296 O   0  0  0  0  0  0  0  0  0  0  0  0
   23.4419   10.2047   62.4279 O   0  0  0  0  0  0  0  0  0  0  0  0
   24.4335   10.3832   65.2636 C   0  0  0  0  0  0  0  0  0  0  0  0
   24.5697   11.8746   65.1100 C   0  0  2  0  0  0  0  0  0  0  0  0
   24.5402   12.8000   66.3040 C   0  0  0  0  0  0  0  0  0  0  0  0
   23.9228   12.4028   67.5027 C   0  0  0  0  0  0  0  0  0  0  0  0
   23.8738   13.2479   68.6142 C   0  0  0  0  0  0  0  0  0  0  0  0
   24.4354   14.5191   68.5457 C   0  0  0  0  0  0  0  0  0  0  0  0
   25.0384   14.9446   67.3659 C   0  0  0  0  0  0  0  0  0  0  0  0
   25.0838   14.0942   66.2576 C   0  0  0  0  0  0  0  0  0  0  0  0
  1  2  4  0
  2  3  4  0
  3  4  1  0
  3  5  4  0
  5  6  4  0
  6  7  4  0
  1  7  4  0
  7  8  1  0
  9  8  1  1
  9 10  1  0
 10 11  1  0
 10 12  2  0
  9 13  1  0
 13 14  1  0
  9 14  1  0
 14 15  1  1
 15 16  4  0
 16 17  4  0
 17 18  4  0
 18 19  4  0
 19 20  4  0
 15 20  4  0
M  END
