6YDY_K73_A_302
     RDKit          3D

 28 30  0  0  0  0  0  0  0  0999 V2000
   30.9393   -2.4147   -1.4287 N   0  0  0  0  0  0  0  0  0  0  0  0
   31.7186   -1.9146   -0.3107 C   0  0  0  0  0  0  0  0  0  0  0  0
   26.5382    3.0073    4.5338 O   0  0  0  0  0  0  0  0  0  0  0  0
   30.8549   -1.1498    0.6375 C   0  0  0  0  0  0  0  0  0  0  0  0
   24.5183    4.5505    3.7368 C   0  0  0  0  0  0  0  0  0  0  0  0
   23.7419    2.6360    2.1493 C   0  0  0  0  0  0  0  0  0  0  0  0
   22.2895    2.8344    2.1613 C   0  0  1  0  0  0  0  0  0  0  0  0
   21.7065    3.0377    0.7519 C   0  0  0  0  0  0  0  0  0  0  0  0
   20.5737    3.9935    0.9098 C   0  0  0  0  0  0  0  0  0  0  0  0
   19.2982    3.4641    1.0120 C   0  0  0  0  0  0  0  0  0  0  0  0
   18.2473    4.3417    1.1550 C   0  0  0  0  0  0  0  0  0  0  0  0
   18.4659    5.7179    1.1953 C   0  0  0  0  0  0  0  0  0  0  0  0
   19.7287    6.2522    1.0947 C   0  0  0  0  0  0  0  0  0  0  0  0
   20.7836    5.3607    0.9506 C   0  0  0  0  0  0  0  0  0  0  0  0
   29.5065   -0.9579    0.4188 C   0  0  0  0  0  0  0  0  0  0  0  0
   30.7075    0.0671    2.6474 C   0  0  0  0  0  0  0  0  0  0  0  0
   31.4661   -0.6377    1.7551 C   0  0  0  0  0  0  0  0  0  0  0  0
   28.7465   -0.2354    1.3404 C   0  0  0  0  0  0  0  0  0  0  0  0
   29.3380    0.2863    2.4669 C   0  0  0  0  0  0  0  0  0  0  0  0
   28.6508    1.0641    3.5035 C   0  0  0  0  0  0  0  0  0  0  0  0
   26.9407    2.9252    3.3653 C   0  0  0  0  0  0  0  0  0  0  0  0
   26.1034    3.5164    2.2792 C   0  0  2  0  0  0  0  0  0  0  0  0
   26.3179    5.0259    2.2007 C   0  0  0  0  0  0  0  0  0  0  0  0
   25.7402    5.4198    3.5447 C   0  0  0  0  0  0  0  0  0  0  0  0
   28.1522    2.3055    2.9648 N   0  0  0  0  0  0  0  0  0  0  0  0
   24.6935    3.5390    2.7232 N   0  0  0  0  0  0  0  0  0  0  0  0
   21.7301    1.5679    2.6959 N   0  0  0  0  0  0  0  0  0  0  0  0
   24.1415    1.5545    1.5691 O   0  0  0  0  0  0  0  0  0  0  0  0
  1  2  1  0
  2  4  1  0
  6  7  1  0
  7  8  1  0
  8  9  1  0
  9 10  2  0
 10 11  1  0
 11 12  2  0
 12 13  1  0
  9 14  1  0
 13 14  2  0
  4 15  2  0
 16 17  2  0
  4 17  1  0
 15 18  1  0
 18 19  2  0
 16 19  1  0
 19 20  1  0
  3 21  2  0
 22 21  1  1
 22 23  1  0
 23 24  1  0
  5 24  1  0
 20 25  1  0
 21 25  1  0
  5 26  1  0
 22 26  1  0
  6 26  1  0
  7 27  1  6
  6 28  2  0
M  END
$$$$
