7ZU2_DHT_A_1001
     RDKit          3D

 21 24  0  0  0  0  0  0  0  0999 V2000
  -31.4065   11.7947   -3.7385 C   0  0  0  0  0  0  0  0  0  0  0  0
  -31.8693   12.4336   -2.4171 C   0  0  0  0  0  0  0  0  0  0  0  0
  -31.1129   11.8661   -1.2484 C   0  0  0  0  0  0  0  0  0  0  0  0
  -31.6732   11.4030   -0.2754 O   0  0  0  0  0  0  0  0  0  0  0  0
  -29.6222   11.7938   -1.3860 C   0  0  0  0  0  0  0  0  0  0  0  0
  -29.2259   11.1414   -2.7279 C   0  0  2  0  0  0  0  0  0  0  0  0
  -27.7060   10.9894   -2.8984 C   0  0  0  0  0  0  0  0  0  0  0  0
  -27.3585   10.2427   -4.1893 C   0  0  0  0  0  0  0  0  0  0  0  0
  -27.9533   10.9354   -5.4183 C   0  0  2  0  0  0  0  0  0  0  0  0
  -29.4862   11.1402   -5.2531 C   0  0  1  0  0  0  0  0  0  0  0  0
  -29.8741   11.8631   -3.9320 C   0  0  1  0  0  0  0  0  0  0  0  0
  -30.1194   11.7931   -6.4968 C   0  0  0  0  0  0  0  0  0  0  0  0
  -29.7976   11.0019   -7.7858 C   0  0  0  0  0  0  0  0  0  0  0  0
  -28.2964   10.8119   -7.9432 C   0  0  1  0  0  0  0  0  0  0  0  0
  -27.7524   10.1150   -6.6851 C   0  0  1  0  0  0  0  0  0  0  0  0
  -26.3244    9.7068   -7.0876 C   0  0  0  0  0  0  0  0  0  0  0  0
  -26.4586    9.3400   -8.5869 C   0  0  0  0  0  0  0  0  0  0  0  0
  -27.8735    9.7730   -8.9968 C   0  0  2  0  0  0  0  0  0  0  0  0
  -27.9205   10.2267  -10.3529 O   0  0  0  0  0  0  0  0  0  0  0  0
  -27.6115   12.1658   -8.2108 C   0  0  0  0  0  0  0  0  0  0  0  0
  -29.4477   13.3457   -3.9628 C   0  0  0  0  0  0  0  0  0  0  0  0
  1  2  1  0
  2  3  1  0
  3  4  2  0
  3  5  1  0
  6  5  1  1
  6  7  1  0
  7  8  1  0
  9  8  1  1
  9 10  1  0
  1 11  1  0
  6 11  1  0
 10 11  1  0
 10 12  1  6
 12 13  1  0
 13 14  1  0
  9 15  1  0
 14 15  1  0
 15 16  1  6
 16 17  1  0
 14 18  1  0
 17 18  1  0
 18 19  1  6
 14 20  1  6
 11 21  1  6
M  END
