7MWU_ZPM_A_2002
     RDKit          3D

 15 15  0  0  0  0  0  0  0  0999 V2000
    8.1893   48.3007   50.4099 C   0  0  1  0  0  0  0  0  0  0  0  0
    9.7024   48.3394   50.2386 C   0  0  1  0  0  0  0  0  0  0  0  0
    9.7689   46.8368   50.5035 C   0  0  2  0  0  0  0  0  0  0  0  0
    8.2518   46.8019   50.6742 C   0  0  2  0  0  0  0  0  0  0  0  0
   10.5233   46.4798   51.7550 C   0  0  0  0  0  0  0  0  0  0  0  0
   10.2246   47.1041   52.9638 O   0  0  0  0  0  0  0  0  0  0  0  0
   11.4323   45.6089   51.7084 O   0  0  0  0  0  0  0  0  0  0  0  0
    7.8464   48.8757   51.2978 H   0  0  0  0  0  0  0  0  0  0  0  0
    7.6460   48.5475   49.4715 H   0  0  0  0  0  0  0  0  0  0  0  0
   10.0015   48.5979   49.1991 H   0  0  0  0  0  0  0  0  0  0  0  0
   10.2003   48.9668   51.0110 H   0  0  0  0  0  0  0  0  0  0  0  0
   10.1075   46.2645   49.6106 H   0  0  0  0  0  0  0  0  0  0  0  0
    7.7511   46.2126   49.8748 H   0  0  0  0  0  0  0  0  0  0  0  0
    7.9086   46.5376   51.6991 H   0  0  0  0  0  0  0  0  0  0  0  0
    9.4970   47.8066   53.0199 H   0  0  0  0  0  0  0  0  0  0  0  0
  1  2  1  0
  2  3  1  0
  3  4  1  0
  1  4  1  0
  3  5  1  0
  5  6  1  0
  5  7  2  0
  1  8  1  1
  1  9  1  0
  2 10  1  6
  2 11  1  0
  3 12  1  6
  4 13  1  6
  4 14  1  0
  6 15  1  0
M  END
