1YVF_PH7_A_800
     RDKit          3D

 28 30  0  0  0  0  0  0  0  0999 V2000
   -6.2662   48.0591   51.9502 C   0  0  0  0  0  0  0  0  0  0  0  0
   -6.7722   47.9466   50.7489 C   0  0  0  0  0  0  0  0  0  0  0  0
   -8.1469   47.9640   50.4115 N   0  0  0  0  0  0  0  0  0  0  0  0
   -8.5947   49.0176   49.5717 C   0  0  0  0  0  0  0  0  0  0  0  0
   -7.7486   49.8871   49.1774 O   0  0  0  0  0  0  0  0  0  0  0  0
   -4.9023   48.3847   52.2949 C   0  0  0  0  0  0  0  0  0  0  0  0
   -3.9644   48.9185   51.4569 C   0  0  0  0  0  0  0  0  0  0  0  0
   -2.2815   48.9285   53.1854 C   0  0  0  0  0  0  0  0  0  0  0  0
   -4.4940   48.1261   53.6035 C   0  0  0  0  0  0  0  0  0  0  0  0
   -3.2204   48.3905   54.0355 C   0  0  0  0  0  0  0  0  0  0  0  0
   -0.6608   49.3524   54.8926 C   0  0  0  0  0  0  0  0  0  0  0  0
    0.6872   49.1565   55.2301 C   0  0  0  0  0  0  0  0  0  0  0  0
    1.1207   49.2748   56.5365 C   0  0  0  0  0  0  0  0  0  0  0  0
    0.2623   49.5882   57.5673 C   0  0  0  0  0  0  0  0  0  0  0  0
   -1.0834   49.7863   57.2433 C   0  0  0  0  0  0  0  0  0  0  0  0
   -1.4992   49.6625   55.9219 C   0  0  0  0  0  0  0  0  0  0  0  0
   -5.8417   47.7872   49.6104 C   0  0  0  0  0  0  0  0  0  0  0  0
   -6.2092   47.1321   48.4417 O   0  0  0  0  0  0  0  0  0  0  0  0
   -4.6657   48.2402   49.6448 O   0  0  0  0  0  0  0  0  0  0  0  0
   -9.9625   49.1807   49.1210 C   0  0  0  0  0  0  0  0  0  0  0  0
  -10.2734   50.2790   48.3421 C   0  0  0  0  0  0  0  0  0  0  0  0
  -11.5563   50.5155   47.8722 C   0  0  0  0  0  0  0  0  0  0  0  0
  -12.5523   49.6342   48.1877 C   0  0  0  0  0  0  0  0  0  0  0  0
  -12.2617   48.5263   48.9679 C   0  0  0  0  0  0  0  0  0  0  0  0
  -10.9912   48.3180   49.4169 C   0  0  0  0  0  0  0  0  0  0  0  0
   -2.6655   49.1970   51.8669 C   0  0  0  0  0  0  0  0  0  0  0  0
   -0.9889   49.2133   53.5745 O   0  0  0  0  0  0  0  0  0  0  0  0
    1.9506   48.7164   53.8572 Br  0  0  0  0  0  0  0  0  0  0  0  0
  1  2  2  0
  2  3  1  0
  3  4  1  0
  4  5  2  0
  1  6  1  0
  6  7  2  0
  6  9  1  0
  8 10  1  0
  9 10  2  0
 11 12  2  0
 12 13  1  0
 13 14  2  0
 14 15  1  0
 11 16  1  0
 15 16  2  0
  2 17  1  0
 17 18  1  0
 17 19  2  0
  4 20  1  0
 20 21  2  0
 21 22  1  0
 22 23  2  0
 23 24  1  0
 20 25  1  0
 24 25  2  0
  7 26  1  0
  8 26  2  0
  8 27  1  0
 11 27  1  0
 12 28  1  0
M  END
$$$$
