
     RDKit          3D

 15 14  0  0  0  0  0  0  0  0999 V2000
   56.2697    4.7730    8.8496 O   0  0  0  0  0  0  0  0  0  0  0  0
   54.2726    4.2204    7.5442 C   0  0  0  0  0  0  0  0  0  0  0  0
   55.2002    3.8434    8.7192 C   0  0  0  0  0  0  0  0  0  0  0  0
   55.1268    4.7724    6.3784 C   0  0  0  0  0  0  0  0  0  0  0  0
   53.5712    2.9451    7.0377 C   0  0  0  0  0  0  0  0  0  0  0  0
   53.2562    5.3146    7.9777 C   0  0  1  0  0  0  0  0  0  0  0  0
   53.9674    6.5007    8.3831 O   0  0  0  0  0  0  0  0  0  0  0  0
   52.2460    5.7010    6.8741 C   0  0  0  0  0  0  0  0  0  0  0  0
   52.4770    6.5354    6.0059 O   0  0  0  0  0  0  0  0  0  0  0  0
   51.0454    5.0241    6.9684 N   0  0  0  0  0  0  0  0  0  0  0  0
   49.8263    5.4970    6.3427 C   0  0  0  0  0  0  0  0  0  0  0  0
   48.8062    6.0061    7.3495 C   0  0  0  0  0  0  0  0  0  0  0  0
   49.1011    7.4117    7.7802 C   0  0  0  0  0  0  0  0  0  0  0  0
   50.1661    7.4952    8.5984 O   0  0  0  0  0  0  0  0  0  0  0  0
   48.4838    8.4084    7.4402 O   0  0  0  0  0  0  0  0  0  0  0  0
  1  3  1  0
  2  3  1  0
  2  4  1  0
  2  5  1  0
  2  6  1  0
  6  7  1  6
  6  8  1  0
  8  9  2  0
  8 10  1  0
 10 11  1  0
 11 12  1  0
 12 13  1  0
 13 14  1  0
 13 15  2  0
M  END
