7TH4_FFO_A_501
     RDKit          3D

 57 59  0  0  0  0  0  0  0  0999 V2000
    1.7712   -2.6899   -0.6766 N   0  0  0  0  0  0  0  0  0  0  0  0
    3.0483   -3.1540   -0.6550 C   0  0  0  0  0  0  0  0  0  0  0  0
    3.2993   -4.5434   -0.8661 N   0  0  0  0  0  0  0  0  0  0  0  0
    4.0829   -2.2913   -0.4497 N   0  0  0  0  0  4  0  0  0  0  0  0
    3.8594   -0.9631   -0.2504 C   0  0  0  0  0  0  0  0  0  0  0  0
    4.8379   -0.1807   -0.1116 O   0  0  0  0  0  0  0  0  0  0  0  0
    2.5420   -0.4737   -0.2274 C   0  0  0  0  0  0  0  0  0  0  0  0
    2.2221    0.9172   -0.0081 N   0  0  0  0  0  0  0  0  0  0  0  0
    1.0138    1.4103   -0.7061 C   0  0  1  0  0  0  0  0  0  0  0  0
   -0.1782    0.5120   -0.3170 C   0  0  0  0  0  0  0  0  0  0  0  0
    0.1488   -0.8979   -0.5456 N   0  0  0  0  0  0  0  0  0  0  0  0
    1.4994   -1.3752   -0.4748 C   0  0  0  0  0  0  0  0  0  0  0  0
    0.7036    2.9037   -0.4512 C   0  0  0  0  0  0  0  0  0  0  0  0
    0.9409    3.2639    0.9489 N   0  0  0  0  0  0  0  0  0  0  0  0
    2.6799    0.6478    3.8386 C   0  0  0  0  0  0  0  0  0  0  0  0
    1.4008    1.1866    4.0586 C   0  0  0  0  0  0  0  0  0  0  0  0
    0.8207    2.0464    3.1212 C   0  0  0  0  0  0  0  0  0  0  0  0
    1.5080    2.3845    1.9403 C   0  0  0  0  0  0  0  0  0  0  0  0
    2.7928    1.8614    1.7328 C   0  0  0  0  0  0  0  0  0  0  0  0
    3.3747    1.0054    2.6716 C   0  0  0  0  0  0  0  0  0  0  0  0
    3.3075   -0.2616    4.8260 C   0  0  0  0  0  0  0  0  0  0  0  0
    3.7143    0.2062    5.9248 O   0  0  0  0  0  0  0  0  0  0  0  0
    3.4776   -1.6605    4.5426 N   0  0  0  0  0  0  0  0  0  0  0  0
    3.7329   -2.1523    3.1839 C   0  0  2  0  0  0  0  0  0  0  0  0
    3.1456   -1.1949    2.1252 C   0  0  0  0  0  0  0  0  0  0  0  0
    2.4372   -1.9276    0.9742 C   0  0  0  0  0  0  0  0  0  0  0  0
    3.3836   -2.2706   -0.1350 C   0  0  0  0  0  0  0  0  0  0  0  0
    4.2745   -1.4495   -0.4815 O   0  0  0  0  0  0  0  0  0  0  0  0
    3.2581   -3.4844   -0.8034 O   0  0  0  0  0  0  0  0  0  0  0  0
    3.1332   -3.5193    3.0228 C   0  0  0  0  0  0  0  0  0  0  0  0
    3.8773   -4.5306    2.9053 O   0  0  0  0  0  0  0  0  0  0  0  0
    1.7503   -3.6735    3.0323 O   0  0  0  0  0  0  0  0  0  0  0  0
    2.8365    1.6363    1.0829 C   0  0  0  0  0  0  0  0  0  0  0  0
    2.1858    1.9002    2.1293 O   0  0  0  0  0  0  0  0  0  0  0  0
    4.2743   -4.9170   -0.8585 H   0  0  0  0  0  0  0  0  0  0  0  0
    2.5068   -5.2031   -1.0305 H   0  0  0  0  0  0  0  0  0  0  0  0
    5.0644   -2.6514   -0.4560 H   0  0  0  0  0  0  0  0  0  0  0  0
    1.1825    1.2812   -1.7975 H   0  0  0  0  0  0  0  0  0  0  0  0
   -0.4230    0.6546    0.7575 H   0  0  0  0  0  0  0  0  0  0  0  0
   -1.0721    0.7782   -0.9212 H   0  0  0  0  0  0  0  0  0  0  0  0
   -0.6287   -1.5803   -0.6921 H   0  0  0  0  0  0  0  0  0  0  0  0
   -0.3471    3.1411   -0.7196 H   0  0  0  0  0  0  0  0  0  0  0  0
    1.3611    3.5286   -1.0948 H   0  0  0  0  0  0  0  0  0  0  0  0
    0.6769    4.2330    1.2395 H   0  0  0  0  0  0  0  0  0  0  0  0
    0.8542    0.9692    4.9666 H   0  0  0  0  0  0  0  0  0  0  0  0
   -0.1599    2.4467    3.3347 H   0  0  0  0  0  0  0  0  0  0  0  0
    3.3448    2.1134    0.8360 H   0  0  0  0  0  0  0  0  0  0  0  0
    4.3649    0.6116    2.4774 H   0  0  0  0  0  0  0  0  0  0  0  0
    3.4238   -2.3486    5.3266 H   0  0  0  0  0  0  0  0  0  0  0  0
    4.8298   -2.2281    3.0175 H   0  0  0  0  0  0  0  0  0  0  0  0
    3.9624   -0.5719    1.6978 H   0  0  0  0  0  0  0  0  0  0  0  0
    2.4222   -0.5015    2.6099 H   0  0  0  0  0  0  0  0  0  0  0  0
    1.9935   -2.8677    1.3674 H   0  0  0  0  0  0  0  0  0  0  0  0
    1.6026   -1.3122    0.5763 H   0  0  0  0  0  0  0  0  0  0  0  0
    3.8805   -3.7244   -1.5656 H   0  0  0  0  0  0  0  0  0  0  0  0
    1.3290   -4.5900    2.9363 H   0  0  0  0  0  0  0  0  0  0  0  0
    3.8582    1.9804    1.0196 H   0  0  0  0  0  0  0  0  0  0  0  0
  1  2  4  0
  2  3  1  0
  2  4  4  0
  4  5  4  0
  5  6  2  0
  5  7  4  0
  7  8  1  0
  8  9  1  0
  9 10  1  0
 10 11  1  0
  1 12  4  0
  7 12  4  0
 11 12  1  0
  9 13  1  0
 13 14  1  0
 15 16  4  0
 16 17  4  0
 14 18  1  0
 17 18  4  0
 18 19  4  0
 15 20  4  0
 19 20  4  0
 15 21  1  0
 21 22  2  0
 21 23  1  0
 23 24  1  0
 24 25  1  0
 25 26  1  0
 26 27  1  0
 27 28  2  0
 27 29  1  0
 24 30  1  0
 30 31  2  0
 30 32  1  0
  8 33  1  0
 33 34  2  0
  3 35  1  0
  3 36  1  0
  4 37  1  0
  9 38  1  1
 10 39  1  0
 10 40  1  0
 11 41  1  0
 13 42  1  0
 13 43  1  0
 14 44  1  0
 16 45  1  0
 17 46  1  0
 19 47  1  0
 20 48  1  0
 23 49  1  0
 24 50  1  1
 25 51  1  0
 25 52  1  0
 26 53  1  0
 26 54  1  0
 29 55  1  0
 32 56  1  0
 33 57  1  0
M  CHG  1   4   1
M  END
