7V3N_AKG_A_1403
     RDKit          3D

 10  9  0  0  0  0  0  0  0  0999 V2000
  120.2760   72.5557  -13.7989 C   0  0  0  0  0  0  0  0  0  0  0  0
  119.0496   72.6510  -13.5801 O   0  0  0  0  0  0  0  0  0  0  0  0
  120.9111   71.3681  -13.4468 O   0  0  0  0  0  0  0  0  0  0  0  0
  121.0061   73.6651  -14.4058 C   0  0  0  0  0  0  0  0  0  0  0  0
  122.2495   73.5504  -14.5197 O   0  0  0  0  0  0  0  0  0  0  0  0
  120.3603   74.8886  -14.8811 C   0  0  0  0  0  0  0  0  0  0  0  0
  121.3558   75.8646  -15.5189 C   0  0  0  0  0  0  0  0  0  0  0  0
  120.5646   77.0499  -15.9950 C   0  0  0  0  0  0  0  0  0  0  0  0
  119.3115   77.1022  -15.7894 O   0  0  0  0  0  0  0  0  0  0  0  0
  121.2035   78.1095  -16.6711 O   0  0  0  0  0  0  0  0  0  0  0  0
  1  2  2  0
  1  3  1  0
  1  4  1  0
  4  5  2  0
  4  6  1  0
  6  7  1  0
  7  8  1  0
  8  9  2  0
  8 10  1  0
M  END
$$$$
