7UEY_N0R_A_403
     RDKit          3D

 27 29  0  0  0  0  0  0  0  0999 V2000
  -18.0619   16.2232  -25.4468 C   0  0  0  0  0  0  0  0  0  0  0  0
  -18.8535   17.5176  -25.4616 C   0  0  0  0  0  0  0  0  0  0  0  0
  -17.8898   16.3994  -22.9067 C   0  0  0  0  0  0  0  0  0  0  0  0
  -18.7142   17.6627  -23.0033 C   0  0  0  0  0  0  0  0  0  0  0  0
  -12.1162   12.3282  -23.6088 C   0  0  0  0  0  0  0  0  0  0  0  0
  -13.2341   12.0708  -22.8552 C   0  0  0  0  0  0  0  0  0  0  0  0
  -14.2479   13.0136  -22.6613 C   0  0  0  0  0  0  0  0  0  0  0  0
  -14.1558   14.2660  -23.2356 C   0  0  0  0  0  0  0  0  0  0  0  0
  -15.1890   15.3123  -23.0735 C   0  0  0  0  0  0  0  0  0  0  0  0
  -16.0901   15.3705  -24.2749 C   0  0  0  0  0  0  0  0  0  0  0  0
  -20.9609   17.5528  -24.1612 C   0  0  0  0  0  0  0  0  0  0  0  0
  -23.6927   17.5159  -23.9882 C   0  0  0  0  0  0  0  0  0  0  0  0
  -23.1199   17.3956  -25.2401 C   0  0  0  0  0  0  0  0  0  0  0  0
  -21.7375   17.4181  -25.2911 C   0  0  0  0  0  0  0  0  0  0  0  0
   -9.9796   11.5971  -24.7131 C   0  0  0  0  0  0  0  0  0  0  0  0
   -8.9002   10.5484  -24.8155 C   0  0  0  0  0  0  0  0  0  0  0  0
  -13.0267   14.5125  -23.9911 C   0  0  0  0  0  0  0  0  0  0  0  0
  -12.0280   13.5801  -24.1807 C   0  0  0  0  0  0  0  0  0  0  0  0
  -17.3600   16.0058  -24.1977 N   0  0  0  0  0  0  0  0  0  0  0  0
  -19.5420   17.5791  -24.1746 N   0  0  0  0  0  0  0  0  0  0  0  0
  -21.6289   17.6628  -22.9891 N   0  0  0  0  0  0  0  0  0  0  0  0
  -22.9344   17.6473  -22.8864 N   0  0  0  0  0  0  0  0  0  0  0  0
  -11.0621   11.4189  -23.8400 N   0  0  0  0  0  0  0  0  0  0  0  0
   -9.8309   12.5985  -25.4448 O   0  0  0  0  0  0  0  0  0  0  0  0
   -7.8988   10.9202  -25.6832 O   0  0  0  0  0  0  0  0  0  0  0  0
  -15.7332   14.8543  -25.3760 O   0  0  0  0  0  0  0  0  0  0  0  0
  -25.4436   17.4979  -23.8234 Cl  0  0  0  0  0  0  0  0  0  0  0  0
  1  2  1  0
  3  4  1  0
  5  6  2  0
  6  7  1  0
  7  8  2  0
  8  9  1  0
  9 10  1  0
 12 13  2  0
 13 14  1  0
 11 14  2  0
 15 16  1  0
  8 17  1  0
 17 18  2  0
  5 18  1  0
  1 19  1  0
  3 19  1  0
 10 19  1  0
 11 20  1  0
  2 20  1  0
  4 20  1  0
 11 21  1  0
 12 22  1  0
 21 22  2  0
  5 23  1  0
 15 23  1  0
 15 24  2  0
 16 25  1  0
 10 26  2  0
 12 27  1  0
M  END
$$$$
