7NP6_UK8_A_601
     RDKit          3D

 45 48  0  0  0  0  0  0  0  0999 V2000
   -5.9389   40.9322    6.0144 C   0  0  0  0  0  0  0  0  0  0  0  0
   -3.7460   40.1881    7.6188 C   0  0  0  0  0  0  0  0  0  0  0  0
   -2.5111   39.8258    8.4261 C   0  0  1  0  0  0  0  0  0  0  0  0
   -5.0602   37.7616    7.5746 C   0  0  0  0  0  0  0  0  0  0  0  0
   -3.8177   37.4163    7.0373 C   0  0  0  0  0  0  0  0  0  0  0  0
   -1.3254   37.2194    7.2304 C   0  0  0  0  0  0  0  0  0  0  0  0
   -5.9411   41.2505    7.3739 C   0  0  0  0  0  0  0  0  0  0  0  0
   -4.8591   40.2593    5.4513 C   0  0  0  0  0  0  0  0  0  0  0  0
   -3.7656   39.9051    6.2390 C   0  0  0  0  0  0  0  0  0  0  0  0
   -5.3052   41.2512   11.7825 C   0  0  0  0  0  0  0  0  0  0  0  0
   -5.8224   41.0765   13.1509 C   0  0  0  0  0  0  0  0  0  0  0  0
   -5.0632   40.8582   14.2805 C   0  0  0  0  0  0  0  0  0  0  0  0
   -7.1257   41.1673   13.6085 C   0  0  0  0  0  0  0  0  0  0  0  0
   -2.6453   37.5748    7.7963 C   0  0  0  0  0  0  0  0  0  0  0  0
   -2.7442   38.0801    9.1036 C   0  0  0  0  0  0  0  0  0  0  0  0
   -3.9879   38.4305    9.6374 C   0  0  0  0  0  0  0  0  0  0  0  0
   -5.1569   38.2816    8.8690 C   0  0  0  0  0  0  0  0  0  0  0  0
   -6.6793   39.4647   10.4848 C   0  0  1  0  0  0  0  0  0  0  0  0
   -5.6670   40.5763   10.6245 C   0  0  0  0  0  0  0  0  0  0  0  0
   -4.8904   41.1829    9.6413 C   0  0  0  0  0  0  0  0  0  0  0  0
   -4.8565   40.8678    8.1959 C   0  0  0  0  0  0  0  0  0  0  0  0
   -2.7706   39.8746    9.7827 F   0  0  0  0  0  0  0  0  0  0  0  0
   -2.0741   38.5452    8.1324 F   0  0  0  0  0  0  0  0  0  0  0  0
   -1.4963   40.7158    8.1280 F   0  0  0  0  0  0  0  0  0  0  0  0
   -4.1058   42.1192   10.2075 N   0  0  0  0  0  0  0  0  0  0  0  0
   -5.8878   40.8058   15.3401 N   0  0  0  0  0  0  0  0  0  0  0  0
   -7.1363   40.9960   14.9448 N   0  0  0  0  0  0  0  0  0  0  0  0
   -0.9295   37.7444    6.1545 O   0  0  0  0  0  0  0  0  0  0  0  0
   -0.5065   36.3012    7.8823 O   0  0  0  0  0  0  0  0  0  0  0  0
   -6.4269   38.6482    9.3416 O   0  0  0  0  0  0  0  0  0  0  0  0
   -4.3783   42.1312   11.4791 O   0  0  0  0  0  0  0  0  0  0  0  0
   -7.2973   42.1862    7.9980 Cl  0  0  0  0  0  0  0  0  0  0  0  0
   -6.7714   41.2226    5.3860 H   0  0  0  0  0  0  0  0  0  0  0  0
   -5.9530   37.6444    6.9732 H   0  0  0  0  0  0  0  0  0  0  0  0
   -3.7756   37.0297    6.0268 H   0  0  0  0  0  0  0  0  0  0  0  0
   -4.8609   40.0267    4.3941 H   0  0  0  0  0  0  0  0  0  0  0  0
   -2.9315   39.4087    5.7602 H   0  0  0  0  0  0  0  0  0  0  0  0
   -3.9875   40.7482   14.3302 H   0  0  0  0  0  0  0  0  0  0  0  0
   -8.0094   41.3836   13.0265 H   0  0  0  0  0  0  0  0  0  0  0  0
   -1.8595   38.2143    9.7131 H   0  0  0  0  0  0  0  0  0  0  0  0
   -4.0234   38.8320   10.6402 H   0  0  0  0  0  0  0  0  0  0  0  0
   -6.6979   38.8299   11.3941 H   0  0  0  0  0  0  0  0  0  0  0  0
   -7.6841   39.9209   10.3741 H   0  0  0  0  0  0  0  0  0  0  0  0
   -5.6032   40.6510   16.3323 H   0  0  0  0  0  0  0  0  0  0  0  0
    0.4950   36.4439    7.9366 H   0  0  0  0  0  0  0  0  0  0  0  0
  2  3  1  0
  4  5  2  0
  1  7  2  0
  1  8  1  0
  2  9  1  0
  8  9  2  0
 10 11  1  0
 11 12  2  0
 11 13  1  0
  5 14  1  0
  6 14  1  0
 14 15  2  0
 15 16  1  0
 16 17  2  0
  4 17  1  0
 10 19  2  0
 18 19  1  0
 19 20  1  0
 20 21  1  0
  7 21  1  0
  2 21  2  0
  3 22  1  1
  3 23  1  0
  3 24  1  0
 20 25  2  0
 12 26  1  0
 26 27  1  0
 13 27  2  0
  6 28  2  0
  6 29  1  0
 18 30  1  0
 17 30  1  0
 25 31  1  0
 10 31  1  0
  7 32  1  0
  1 33  1  0
  4 34  1  0
  5 35  1  0
  8 36  1  0
  9 37  1  0
 12 38  1  0
 13 39  1  0
 15 40  1  0
 16 41  1  0
 18 42  1  1
 18 43  1  0
 26 44  1  0
 29 45  1  0
M  END
