6XBO_5MC_A_401
     RDKit          3D

 22 23  0  0  0  0  0  0  0  0999 V2000
   15.3385  -15.3270    9.9461 P   0  0  2  0  0  0  0  0  0  0  0  0
   15.1761  -15.5227    8.4403 O   0  0  0  0  0  0  0  0  0  0  0  0
   15.9747  -13.8099   10.2998 O   0  0  0  0  0  0  0  0  0  0  0  0
   16.4352  -16.4915   10.4982 O   0  0  0  0  0  0  0  0  0  0  0  0
   13.8654  -15.6034   10.7474 O   0  0  0  0  0  0  0  0  0  0  0  0
   13.2719  -16.7823   10.3316 C   0  0  0  0  0  0  0  0  0  0  0  0
   13.1475  -17.7604   11.4471 C   0  0  1  0  0  0  0  0  0  0  0  0
   13.3289  -19.0832   11.0815 O   0  0  0  0  0  0  0  0  0  0  0  0
   14.3400  -17.6038   12.3917 C   0  0  1  0  0  0  0  0  0  0  0  0
   14.3100  -16.4303   13.1058 O   0  0  0  0  0  0  0  0  0  0  0  0
   14.0970  -18.8364   13.2655 C   0  0  1  0  0  0  0  0  0  0  0  0
   13.2644  -18.4117   14.3186 O   0  0  0  0  0  0  0  0  0  0  0  0
   13.3822  -19.7442   12.3149 C   0  0  2  0  0  0  0  0  0  0  0  0
   13.8743  -21.0803   12.2485 N   0  0  0  0  0  0  0  0  0  0  0  0
   13.6950  -21.9831   13.2372 C   0  0  0  0  0  0  0  0  0  0  0  0
   13.0635  -21.6403   14.2747 O   0  0  0  0  0  0  0  0  0  0  0  0
   14.1497  -23.2364   13.1889 N   0  0  0  0  0  0  0  0  0  0  0  0
   14.8255  -23.6745   12.1281 C   0  0  0  0  0  0  0  0  0  0  0  0
   15.3321  -25.0033   12.0274 N   0  0  0  0  0  0  0  0  0  0  0  0
   15.0500  -22.8125   11.0764 C   0  0  0  0  0  0  0  0  0  0  0  0
   14.5674  -21.5350   11.1643 C   0  0  0  0  0  0  0  0  0  0  0  0
   15.7988  -23.2338    9.8566 C   0  0  0  0  0  0  0  0  0  0  0  0
  1  2  2  0
  1  3  1  6
  1  4  1  0
  1  5  1  0
  5  6  1  0
  7  6  1  6
  7  8  1  0
  7  9  1  0
  9 10  1  1
  9 11  1  0
 11 12  1  1
  8 13  1  0
 11 13  1  0
 13 14  1  6
 14 15  1  0
 15 16  2  0
 15 17  1  0
 17 18  2  0
 18 19  1  0
 18 20  1  0
 14 21  1  0
 20 21  2  0
 20 22  1  0
M  END
$$$$
