7OP9_06K_I_301
     RDKit          3D

 11 12  0  0  0  0  0  0  0  0999 V2000
  -43.8247  -26.9609  -35.7810 C   0  0  0  0  0  0  0  0  0  0  0  0
  -44.0620  -27.2613  -33.4634 C   0  0  0  0  0  0  0  0  0  0  0  0
  -42.7853  -26.7837  -33.2508 C   0  0  0  0  0  0  0  0  0  0  0  0
  -42.0611  -26.4016  -34.3697 C   0  0  0  0  0  0  0  0  0  0  0  0
  -43.6137  -27.2816  -31.2941 C   0  0  0  0  0  0  0  0  0  0  0  0
  -42.5743  -26.4898  -35.6117 N   0  0  0  0  0  0  0  0  0  0  0  0
  -44.5704  -27.3478  -34.7029 N   0  0  0  0  0  0  0  0  0  0  0  0
  -42.5071  -26.7955  -31.9140 N   0  0  0  0  0  0  0  0  0  0  0  0
  -44.5321  -27.5547  -32.2313 N   0  0  0  0  0  0  0  0  0  0  0  0
  -44.5018  -27.0776  -37.4161 Cl  0  0  0  0  0  0  0  0  0  0  0  0
  -40.4306  -25.7928  -34.0859 Cl  0  0  0  0  0  0  0  0  0  0  0  0
  2  3  1  0
  3  4  2  0
  1  6  2  0
  4  6  1  0
  1  7  1  0
  2  7  2  0
  3  8  1  0
  5  8  1  0
  2  9  1  0
  5  9  2  0
  1 10  1  0
  4 11  1  0
M  END
$$$$
