
     RDKit          3D

 14 14  0  0  0  0  0  0  0  0999 V2000
   -0.9433   11.6846   14.3935 S   0  0  0  0  0  6  0  0  0  0  0  0
   -1.4354   10.5436   13.6579 O   0  0  0  0  0  0  0  0  0  0  0  0
   -1.6635   12.2522   15.5113 O   0  0  0  0  0  0  0  0  0  0  0  0
   -0.7427   12.9048   13.3547 O   0  0  0  0  0  0  0  0  0  0  0  0
    0.7658   11.4403   14.8493 C   0  0  0  0  0  0  0  0  0  0  0  0
    1.5785   10.8064   13.7263 C   0  0  0  0  0  0  0  0  0  0  0  0
    2.9294   10.2783   14.2103 C   0  0  0  0  0  0  0  0  0  0  0  0
    3.9139   11.3150   14.5155 N   0  0  0  0  0  0  0  0  0  0  0  0
    5.2568   10.8284   14.8641 C   0  0  0  0  0  0  0  0  0  0  0  0
    5.9275   10.3371   13.5637 C   0  0  0  0  0  0  0  0  0  0  0  0
    7.1127    9.3946   13.7964 C   0  0  0  0  0  0  0  0  0  0  0  0
    7.7111    9.5448   15.1864 C   0  0  0  0  0  0  0  0  0  0  0  0
    6.6772    9.2676   16.2774 C   0  0  0  0  0  0  0  0  0  0  0  0
    5.2549    9.7053   15.9081 C   0  0  0  0  0  0  0  0  0  0  0  0
  1  2  2  0
  1  3  2  0
  1  4  1  0
  1  5  1  0
  5  6  1  0
  6  7  1  0
  7  8  1  0
  8  9  1  0
  9 10  1  0
 10 11  1  0
 11 12  1  0
 12 13  1  0
  9 14  1  0
 13 14  1  0
M  END
