7THI_PGA_B_301
     RDKit          3D

  9  8  0  0  0  0  0  0  0  0999 V2000
   39.4145   34.8646  104.9496 P   0  0  1  0  0  0  0  0  0  0  0  0
   38.8183   34.1806  106.2835 O   0  0  0  0  0  0  0  0  0  0  0  0
   40.9204   34.8570  104.9563 O   0  0  0  0  0  0  0  0  0  0  0  0
   38.8704   33.9637  103.8828 O   0  0  0  0  0  0  0  0  0  0  0  0
   38.9059   36.2866  104.8666 O   0  0  0  0  0  0  0  0  0  0  0  0
   39.0653   34.6184  107.6154 C   0  0  0  0  0  0  0  0  0  0  0  0
   38.0835   33.9056  108.5172 C   0  0  0  0  0  0  0  0  0  0  0  0
   38.1307   34.0759  109.7420 O   0  0  0  0  0  0  0  0  0  0  0  0
   37.1874   33.1695  108.0675 O   0  0  0  0  0  0  0  0  0  0  0  0
  1  2  1  0
  1  3  2  0
  1  4  1  6
  1  5  1  0
  2  6  1  0
  6  7  1  0
  7  8  2  0
  7  9  1  0
M  END
