7UY4_SMI_A_302
     RDKit          3D

 24 26  0  0  0  0  0  0  0  0999 V2000
  -19.8505  -35.4392   30.1825 O   0  0  0  0  0  0  0  0  0  0  0  0
  -20.8429  -36.2832   29.7791 C   0  0  2  0  0  0  0  0  0  0  0  0
  -22.1427  -35.4975   29.7574 C   0  0  0  0  0  0  0  0  0  0  0  0
  -21.0591  -37.4869   30.6371 C   0  0  0  0  0  0  0  0  0  0  0  0
  -19.7578  -38.2048   30.8652 C   0  0  1  0  0  0  0  0  0  0  0  0
  -18.6268  -37.2588   31.1892 C   0  0  1  0  0  0  0  0  0  0  0  0
  -17.5909  -37.4450   30.2678 O   0  0  0  0  0  0  0  0  0  0  0  0
  -19.0491  -35.8226   31.2052 C   0  0  2  0  0  0  0  0  0  0  0  0
  -18.1308  -37.6413   32.4341 O   0  0  0  0  0  0  0  0  0  0  0  0
  -19.5494  -35.4896   32.4839 O   0  0  0  0  0  0  0  0  0  0  0  0
  -17.4321  -36.5708   32.9674 C   0  0  2  0  0  0  0  0  0  0  0  0
  -16.6909  -36.8964   34.2222 C   0  0  1  0  0  0  0  0  0  0  0  0
  -15.6381  -37.8763   33.9541 N   0  0  0  0  0  0  0  0  0  0  0  0
  -15.8988  -39.1562   34.5528 C   0  0  0  0  0  0  0  0  0  0  0  0
  -15.9693  -35.6400   34.6631 C   0  0  1  0  0  0  0  0  0  0  0  0
  -14.9066  -35.4573   33.7673 O   0  0  0  0  0  0  0  0  0  0  0  0
  -16.8035  -34.4114   34.6808 C   0  0  1  0  0  0  0  0  0  0  0  0
  -15.9143  -33.2584   34.6293 N   0  0  0  0  0  0  0  0  0  0  0  0
  -15.2472  -33.0525   35.8827 C   0  0  0  0  0  0  0  0  0  0  0  0
  -17.7669  -34.2551   33.5465 C   0  0  2  0  0  0  0  0  0  0  0  0
  -18.6567  -33.2387   33.8766 O   0  0  0  0  0  0  0  0  0  0  0  0
  -18.4863  -35.5469   33.3542 C   0  0  1  0  0  0  0  0  0  0  0  0
  -19.9828  -39.1456   31.8876 O   0  0  0  0  0  0  0  0  0  0  0  0
  -19.4479  -38.9467   29.7248 O   0  0  0  0  0  0  0  0  0  0  0  0
  1  2  1  0
  2  3  1  1
  2  4  1  0
  4  5  1  0
  5  6  1  0
  6  7  1  6
  8  1  1  6
  6  8  1  0
  6  9  1  0
  8 10  1  0
 11  9  1  1
 11 12  1  0
 12 13  1  6
 13 14  1  0
 12 15  1  0
 15 16  1  6
 15 17  1  0
 17 18  1  6
 18 19  1  0
 17 20  1  0
 20 21  1  1
 22 10  1  6
 11 22  1  0
 20 22  1  0
  5 23  1  1
  5 24  1  0
M  END
$$$$
