7P85_5ZG_A_401
     RDKit          3D

 29 29  0  0  0  0  0  0  0  0999 V2000
   18.3865  -31.8312   -0.6419 C   0  0  0  0  0  0  0  0  0  0  0  0
   19.3450  -30.9836   -1.1783 C   0  0  0  0  0  0  0  0  0  0  0  0
   20.5450  -30.7728   -0.5240 C   0  0  0  0  0  0  0  0  0  0  0  0
   20.8114  -31.3391    0.7128 C   0  0  0  0  0  0  0  0  0  0  0  0
   19.8537  -32.1759    1.2513 C   0  0  0  0  0  0  0  0  0  0  0  0
   18.6527  -32.4024    0.5973 C   0  0  0  0  0  0  0  0  0  0  0  0
   17.0769  -32.0984   -1.3529 C   0  0  0  0  0  0  0  0  0  0  0  0
   22.1320  -31.0941    1.4164 C   0  0  0  0  0  0  0  0  0  0  0  0
   16.6698  -35.5249   -0.5009 C   0  0  0  0  0  0  0  0  0  0  0  0
   15.6991  -35.3462   -1.5990 C   0  0  0  0  0  0  0  0  0  0  0  0
   15.9120  -32.9627   -0.3140 P   0  0  2  0  0  5  0  0  0  0  0  0
   16.7506  -34.2384    0.0440 O   0  0  0  0  0  0  0  0  0  0  0  0
   14.6169  -33.1402   -1.1817 O   0  0  0  0  0  0  0  0  0  0  0  0
   15.6332  -32.3310    0.9961 O   0  0  0  0  0  0  0  0  0  0  0  0
   19.1607  -30.5058   -2.0743 H   0  0  0  0  0  0  0  0  0  0  0  0
   21.2615  -30.1778   -0.9685 H   0  0  0  0  0  0  0  0  0  0  0  0
   20.0351  -32.6399    2.1551 H   0  0  0  0  0  0  0  0  0  0  0  0
   17.9423  -33.0068    1.0389 H   0  0  0  0  0  0  0  0  0  0  0  0
   17.2710  -32.6923   -2.2216 H   0  0  0  0  0  0  0  0  0  0  0  0
   16.6465  -31.1547   -1.6155 H   0  0  0  0  0  0  0  0  0  0  0  0
   22.7259  -30.4199    0.8355 H   0  0  0  0  0  0  0  0  0  0  0  0
   22.6531  -32.0216    1.5297 H   0  0  0  0  0  0  0  0  0  0  0  0
   21.9487  -30.6678    2.3806 H   0  0  0  0  0  0  0  0  0  0  0  0
   17.6197  -35.8475   -0.8731 H   0  0  0  0  0  0  0  0  0  0  0  0
   16.3788  -36.2712    0.2084 H   0  0  0  0  0  0  0  0  0  0  0  0
   16.0522  -34.5889   -2.2675 H   0  0  0  0  0  0  0  0  0  0  0  0
   14.7531  -35.0523   -1.1946 H   0  0  0  0  0  0  0  0  0  0  0  0
   15.5887  -36.2681   -2.1309 H   0  0  0  0  0  0  0  0  0  0  0  0
   14.8484  -33.5561   -2.0269 H   0  0  0  0  0  0  0  0  0  0  0  0
  1  2  4  0
  2  3  4  0
  3  4  4  0
  4  5  4  0
  1  6  4  0
  5  6  4  0
  1  7  1  0
  4  8  1  0
  9 10  1  0
  7 11  1  0
 11 12  1  1
  9 12  1  0
 11 13  1  0
 11 14  2  0
  2 15  1  0
  3 16  1  0
  5 17  1  0
  6 18  1  0
  7 19  1  0
  7 20  1  0
  8 21  1  0
  8 22  1  0
  8 23  1  0
  9 24  1  0
  9 25  1  0
 10 26  1  0
 10 27  1  0
 10 28  1  0
 13 29  1  0
M  END
