7WKL_CAQ_A_401
     RDKit          3D

 14 14  0  0  0  0  0  0  0  0999 V2000
   29.2212    7.0016   69.1648 C   0  0  0  0  0  0  0  0  0  0  0  0
   29.2960    7.9989   70.1398 C   0  0  0  0  0  0  0  0  0  0  0  0
   28.1319    8.5047   70.7332 C   0  0  0  0  0  0  0  0  0  0  0  0
   28.2724    9.5010   71.7015 O   0  0  0  0  0  0  0  0  0  0  0  0
   26.8708    7.9952   70.3359 C   0  0  0  0  0  0  0  0  0  0  0  0
   25.6680    8.4485   70.8810 O   0  0  0  0  0  0  0  0  0  0  0  0
   26.8108    6.9947   69.3568 C   0  0  0  0  0  0  0  0  0  0  0  0
   27.9794    6.4998   68.7737 C   0  0  0  0  0  0  0  0  0  0  0  0
   30.1266    6.6176   68.7127 H   0  0  0  0  0  0  0  0  0  0  0  0
   30.2641    8.3821   70.4368 H   0  0  0  0  0  0  0  0  0  0  0  0
   27.4973    9.9294   72.1867 H   0  0  0  0  0  0  0  0  0  0  0  0
   25.6043    9.1643   71.5903 H   0  0  0  0  0  0  0  0  0  0  0  0
   25.8517    6.5990   69.0467 H   0  0  0  0  0  0  0  0  0  0  0  0
   27.9220    5.7268   68.0181 H   0  0  0  0  0  0  0  0  0  0  0  0
  1  2  2  0
  2  3  1  0
  3  4  1  0
  3  5  2  0
  5  6  1  0
  5  7  1  0
  1  8  1  0
  7  8  2  0
  1  9  1  0
  2 10  1  0
  4 11  1  0
  6 12  1  0
  7 13  1  0
  8 14  1  0
M  END
