1XM6_5RM_A_1003
     RDKit          3D

 38 39  0  0  0  0  0  0  0  0999 V2000
   61.8996    2.5704   -0.1326 O   0  0  0  0  0  0  0  0  0  0  0  0
   63.0528    2.9883    0.1481 C   0  0  0  0  0  0  0  0  0  0  0  0
   64.1865    2.6127   -0.5316 O   0  0  0  0  0  0  0  0  0  0  0  0
   63.3225    3.8834    1.1979 N   0  0  0  0  0  0  0  0  0  0  0  0
   64.7631    4.0765    1.2413 C   0  0  1  0  0  0  0  0  0  0  0  0
   65.3292    3.2720    0.0183 C   0  0  2  0  0  0  0  0  0  0  0  0
   65.9006    4.2157   -1.0502 C   0  0  1  0  0  0  0  0  0  0  0  0
   66.3932    2.2644    0.4448 C   0  0  0  0  0  0  0  0  0  0  0  0
   67.5976    2.7153    1.0117 C   0  0  0  0  0  0  0  0  0  0  0  0
   68.5926    1.8121    1.3846 C   0  0  0  0  0  0  0  0  0  0  0  0
   68.4105    0.4317    1.1912 C   0  0  0  0  0  0  0  0  0  0  0  0
   69.3875   -0.5073    1.5587 O   0  0  0  0  0  0  0  0  0  0  0  0
   70.6690   -0.1750    2.0831 C   0  0  2  0  0  0  0  0  0  0  0  0
   67.2209   -0.0363    0.6142 C   0  0  0  0  0  0  0  0  0  0  0  0
   66.2231    0.8827    0.2320 C   0  0  0  0  0  0  0  0  0  0  0  0
   67.0782   -1.4230    0.4319 O   0  0  0  0  0  0  0  0  0  0  0  0
   65.8759   -2.0991    0.0587 C   0  0  1  0  0  0  0  0  0  0  0  0
   65.2756   -2.8669    1.2427 C   0  0  1  0  0  0  0  0  0  0  0  0
   66.3549   -3.3621    2.2026 C   0  0  2  0  0  0  0  0  0  0  0  0
   62.6263    4.2712    1.8724 H   0  0  0  0  0  0  0  0  0  0  0  0
   64.9958    5.1617    1.1795 H   0  0  0  0  0  0  0  0  0  0  0  0
   65.1421    3.6862    2.2107 H   0  0  0  0  0  0  0  0  0  0  0  0
   66.2487    3.6316   -1.9291 H   0  0  0  0  0  0  0  0  0  0  0  0
   65.1182    4.9270   -1.3916 H   0  0  0  0  0  0  0  0  0  0  0  0
   66.7557    4.7990   -0.6470 H   0  0  0  0  0  0  0  0  0  0  0  0
   67.7675    3.7736    1.1666 H   0  0  0  0  0  0  0  0  0  0  0  0
   69.5025    2.1992    1.8223 H   0  0  0  0  0  0  0  0  0  0  0  0
   71.2084    0.4929    1.3788 H   0  0  0  0  0  0  0  0  0  0  0  0
   71.2595   -1.1050    2.2130 H   0  0  0  0  0  0  0  0  0  0  0  0
   70.5607    0.3183    3.0721 H   0  0  0  0  0  0  0  0  0  0  0  0
   65.3186    0.5264   -0.2359 H   0  0  0  0  0  0  0  0  0  0  0  0
   65.1379   -1.3827   -0.3595 H   0  0  0  0  0  0  0  0  0  0  0  0
   66.1167   -2.8193   -0.7520 H   0  0  0  0  0  0  0  0  0  0  0  0
   64.5623   -2.2229    1.7984 H   0  0  0  0  0  0  0  0  0  0  0  0
   64.7116   -3.7419    0.8538 H   0  0  0  0  0  0  0  0  0  0  0  0
   67.0351   -4.0724    1.6864 H   0  0  0  0  0  0  0  0  0  0  0  0
   65.8783   -3.8854    3.0581 H   0  0  0  0  0  0  0  0  0  0  0  0
   66.9453   -2.5077    2.5967 H   0  0  0  0  0  0  0  0  0  0  0  0
  1  2  2  0
  2  3  1  0
  2  4  1  0
  4  5  1  0
  3  6  1  0
  5  6  1  0
  6  7  1  0
  6  8  1  1
  8  9  2  0
  9 10  1  0
 10 11  2  0
 11 12  1  0
 12 13  1  0
 11 14  1  0
  8 15  1  0
 14 15  2  0
 14 16  1  0
 16 17  1  0
 17 18  1  0
 18 19  1  0
  4 20  1  0
  5 21  1  6
  5 22  1  0
  7 23  1  6
  7 24  1  0
  7 25  1  0
  9 26  1  0
 10 27  1  0
 13 28  1  6
 13 29  1  0
 13 30  1  0
 15 31  1  0
 17 32  1  6
 17 33  1  0
 18 34  1  1
 18 35  1  0
 19 36  1  6
 19 37  1  0
 19 38  1  0
M  END
