1NAV_IH5_A_600
     RDKit          3D

 23 24  0  0  0  0  0  0  0  0999 V2000
   43.2194   13.4632   17.6365 O   0  0  0  0  0  0  0  0  0  0  0  0
   44.3707   14.1063   18.1139 C   0  0  0  0  0  0  0  0  0  0  0  0
   45.5272   13.7527   17.7006 O   0  0  0  0  0  0  0  0  0  0  0  0
   44.2556   15.2083   19.1080 C   0  0  0  0  0  0  0  0  0  0  0  0
   45.5764   15.8842   19.1616 C   0  0  0  0  0  0  0  0  0  0  0  0
   45.8702   16.8750   18.2616 C   0  0  0  0  0  0  0  0  0  0  0  0
   47.0970   17.5323   18.2803 C   0  0  0  0  0  0  0  0  0  0  0  0
   48.0883   17.2238   19.2074 C   0  0  0  0  0  0  0  0  0  0  0  0
   49.3074   17.8505   19.2552 O   0  0  0  0  0  0  0  0  0  0  0  0
   49.6890   18.9560   19.9760 C   0  0  0  0  0  0  0  0  0  0  0  0
   49.2968   19.2153   21.2748 C   0  0  0  0  0  0  0  0  0  0  0  0
   49.6961   20.3374   21.9829 C   0  0  0  0  0  0  0  0  0  0  0  0
   50.5263   21.2735   21.4095 C   0  0  0  0  0  0  0  0  0  0  0  0
   50.9462   22.4073   22.0855 O   0  0  0  0  0  0  0  0  0  0  0  0
   50.9331   21.0447   20.1224 C   0  0  0  0  0  0  0  0  0  0  0  0
   50.5350   19.9215   19.4106 C   0  0  0  0  0  0  0  0  0  0  0  0
   51.8323   22.0562   19.4981 C   0  0  2  0  0  0  0  0  0  0  0  0
   51.0087   22.7797   18.4551 C   0  0  0  0  0  0  0  0  0  0  0  0
   53.0112   21.3798   18.8430 C   0  0  0  0  0  0  0  0  0  0  0  0
   47.7664   16.2163   20.1067 C   0  0  0  0  0  0  0  0  0  0  0  0
   46.5359   15.5623   20.0826 C   0  0  0  0  0  0  0  0  0  0  0  0
   48.8923   15.6499   21.3295 Cl  0  0  0  0  0  0  0  0  0  0  0  0
   47.3223   18.7582   17.0531 Cl  0  0  0  0  0  0  0  0  0  0  0  0
  1  2  1  0
  2  3  2  0
  4  2  1  1
  4  5  1  0
  5  6  2  0
  6  7  1  0
  7  8  2  0
  8  9  1  0
  9 10  1  0
 10 11  2  0
 11 12  1  0
 12 13  2  0
 13 14  1  0
 13 15  1  0
 10 16  1  0
 15 16  2  0
 17 15  1  6
 18 17  1  1
 19 17  1  1
  8 20  1  0
  5 21  1  0
 20 21  2  0
 20 22  1  0
  7 23  1  0
M  END
$$$$
