5SAK_ZRY_A_404
     RDKit          3D

 18 20  0  0  0  0  0  0  0  0999 V2000
   29.7918    4.6334   58.7638 N   0  0  0  0  0  0  0  0  0  0  0  0
   29.2889    5.6154   62.1624 C   0  0  0  0  0  0  0  0  0  0  0  0
   30.1143    8.6323   64.0535 C   0  0  0  0  0  0  0  0  0  0  0  0
   29.3994    6.3988   63.1942 N   0  0  0  0  0  0  0  0  0  0  0  0
   29.6724    8.3988   65.3370 C   0  0  0  0  0  0  0  0  0  0  0  0
   28.7222    3.8182   60.7792 C   0  0  0  0  0  0  0  0  0  0  0  0
   27.9032    3.5620   62.9869 C   0  0  0  0  0  0  0  0  0  0  0  0
   28.6009    4.3210   62.0715 C   0  0  0  0  0  0  0  0  0  0  0  0
   29.9691    7.6416   63.0667 N   0  0  0  0  0  0  0  0  0  0  0  0
   27.3500    2.3599   62.6397 C   0  0  0  0  0  0  0  0  0  0  0  0
   27.4724    1.8549   61.3392 C   0  0  0  0  0  0  0  0  0  0  0  0
   28.1696    2.6134   60.4264 C   0  0  0  0  0  0  0  0  0  0  0  0
   29.8354    5.8851   60.8759 N   0  0  0  0  0  0  0  0  0  0  0  0
   29.4916    4.7971   60.0326 C   0  0  0  0  0  0  0  0  0  0  0  0
   29.8021    9.4202   66.2908 C   0  0  0  0  0  0  0  0  0  0  0  0
   30.3641   10.6151   65.9155 C   0  0  0  0  0  0  0  0  0  0  0  0
   30.8111   10.8600   64.6342 C   0  0  0  0  0  0  0  0  0  0  0  0
   30.6834    9.8407   63.6759 C   0  0  0  0  0  0  0  0  0  0  0  0
  2  4  2  0
  3  5  2  0
  7  8  2  0
  6  8  1  0
  2  8  1  0
  4  9  1  0
  3  9  1  0
  7 10  1  0
 10 11  2  0
  6 12  2  0
 11 12  1  0
  2 13  1  0
 13 14  1  0
  1 14  2  0
  6 14  1  0
  5 15  1  0
 15 16  2  0
 16 17  1  0
 17 18  2  0
  3 18  1  0
M  END
$$$$
