
     RDKit          3D

 12 13  0  0  0  0  0  0  0  0999 V2000
   30.8117   66.7805    6.1295 C   0  0  1  0  0  0  0  0  0  0  0  0
   31.2653   68.1063    5.8602 O   0  0  0  0  0  0  0  0  0  0  0  0
   31.0307   66.3641    7.5989 C   0  0  2  0  0  0  0  0  0  0  0  0
   29.8109   66.5060    8.4059 N   0  0  0  0  0  0  0  0  0  0  0  0
   28.7381   65.6136    7.9854 C   0  0  0  0  0  0  0  0  0  0  0  0
   28.6722   65.4678    6.4535 C   0  0  0  0  0  0  0  0  0  0  0  0
   29.3330   66.6393    5.7269 C   0  0  0  0  0  0  0  0  0  0  0  0
   30.2249   66.3642    9.8108 C   0  0  0  0  0  0  0  0  0  0  0  0
   31.7104   66.7699    9.8386 C   0  0  1  0  0  0  0  0  0  0  0  0
   32.5271   65.6395   10.1740 O   0  0  0  0  0  0  0  0  0  0  0  0
   32.0128   67.2154    8.4011 C   0  0  1  0  0  0  0  0  0  0  0  0
   33.3774   66.9659    8.0671 O   0  0  0  0  0  0  0  0  0  0  0  0
  1  2  1  1
  1  3  1  0
  3  4  1  1
  4  5  1  0
  5  6  1  0
  1  7  1  0
  6  7  1  0
  4  8  1  0
  8  9  1  0
  9 10  1  6
  3 11  1  0
  9 11  1  0
 11 12  1  6
M  END
