7U0U_FK5_B_201
     RDKit          3D

 57 60  0  0  0  0  0  0  0  0999 V2000
  -34.5660  -14.5730  -25.4690 C   0  0  0  0  0  0  0  0  0  0  0  0
  -35.3170  -14.2470  -26.7270 C   0  0  2  0  0  0  0  0  0  0  0  0
  -35.7910  -15.5490  -27.3840 C   0  0  0  0  0  0  0  0  0  0  0  0
  -34.6280  -16.3520  -27.9800 C   0  0  0  0  0  0  0  0  0  0  0  0
  -33.8010  -15.5040  -28.9530 C   0  0  0  0  0  0  0  0  0  0  0  0
  -33.3010  -14.2240  -28.2690 C   0  0  0  0  0  0  0  0  0  0  0  0
  -34.7200  -12.2450  -27.9430 C   0  0  0  0  0  0  0  0  0  0  0  0
  -33.9860  -11.4770  -28.8360 C   0  0  0  0  0  0  0  0  0  0  0  0
  -32.8140  -10.6190  -28.3760 C   0  0  1  0  0  0  0  0  0  0  0  0
  -33.0260  -10.0720  -26.9600 C   0  0  1  0  0  0  0  0  0  0  0  0
  -31.6980   -9.5860  -26.3690 C   0  0  0  0  0  0  0  0  0  0  0  0
  -30.5910  -10.6280  -26.5820 C   0  0  1  0  0  0  0  0  0  0  0  0
  -30.4680  -10.9380  -28.0720 C   0  0  1  0  0  0  0  0  0  0  0  0
  -29.4040  -11.9870  -28.4380 C   0  0  2  0  0  0  0  0  0  0  0  0
  -29.4440  -13.2130  -27.5300 C   0  0  0  0  0  0  0  0  0  0  0  0
  -28.5560  -14.3830  -27.9810 C   0  0  2  0  0  0  0  0  0  0  0  0
  -27.1160  -14.1730  -27.4910 C   0  0  0  0  0  0  0  0  0  0  0  0
  -26.9960  -14.5680  -26.0430 C   0  0  0  0  0  0  0  0  0  0  0  0
  -27.0350  -13.5230  -25.0150 C   0  0  0  0  0  0  0  0  0  0  0  0
  -26.9580  -13.8610  -23.5510 C   0  0  2  0  0  0  0  0  0  0  0  0
  -28.3600  -13.9890  -23.0420 C   0  0  0  0  0  0  0  0  0  0  0  0
  -29.1020  -15.3150  -23.0570 C   0  0  0  0  0  0  0  0  0  0  0  0
  -30.6110  -15.1520  -22.8580 C   0  0  1  0  0  0  0  0  0  0  0  0
  -31.3640  -14.8070  -24.1550 C   0  0  2  0  0  0  0  0  0  0  0  0
  -32.8560  -14.5180  -23.9630 C   0  0  1  0  0  0  0  0  0  0  0  0
  -33.0250  -13.3660  -23.0010 C   0  0  0  0  0  0  0  0  0  0  0  0
  -33.6200  -13.6290  -21.6990 C   0  0  0  0  0  0  0  0  0  0  0  0
  -33.7610  -12.5810  -20.6340 C   0  0  1  0  0  0  0  0  0  0  0  0
  -35.0450  -12.8820  -19.8620 C   0  0  0  0  0  0  0  0  0  0  0  0
  -35.2340  -11.8850  -18.7250 C   0  0  2  0  0  0  0  0  0  0  0  0
  -34.0410  -11.9390  -17.7680 C   0  0  1  0  0  0  0  0  0  0  0  0
  -32.7310  -11.6780  -18.5090 C   0  0  0  0  0  0  0  0  0  0  0  0
  -32.5430  -12.6440  -19.6940 C   0  0  0  0  0  0  0  0  0  0  0  0
  -34.0820   -8.9590  -26.9060 C   0  0  0  0  0  0  0  0  0  0  0  0
  -28.5850  -14.5620  -29.5060 C   0  0  0  0  0  0  0  0  0  0  0  0
  -26.8170  -16.0160  -25.6800 C   0  0  0  0  0  0  0  0  0  0  0  0
  -26.2830  -12.6910  -22.8400 C   0  0  0  0  0  0  0  0  0  0  0  0
  -24.9150  -12.4560  -23.4510 C   0  0  0  0  0  0  0  0  0  0  0  0
  -23.7300  -12.7710  -22.6580 C   0  0  0  0  0  0  0  0  0  0  0  0
  -31.2190  -15.9090  -25.2090 C   0  0  0  0  0  0  0  0  0  0  0  0
  -32.5600  -11.9860  -23.4050 C   0  0  0  0  0  0  0  0  0  0  0  0
  -29.2620  -10.3960  -24.6740 C   0  0  0  0  0  0  0  0  0  0  0  0
  -27.8210  -10.7770  -29.6710 C   0  0  0  0  0  0  0  0  0  0  0  0
  -37.6030  -11.7990  -18.6410 C   0  0  0  0  0  0  0  0  0  0  0  0
  -34.4360  -13.5240  -27.6530 N   0  0  0  0  0  0  0  0  0  0  0  0
  -33.3830  -14.1580  -25.2380 O   0  0  0  0  0  0  0  0  0  0  0  0
  -35.2400  -15.3390  -24.5480 O   0  0  0  0  0  0  0  0  0  0  0  0
  -35.7960  -11.6440  -27.3240 O   0  0  0  0  0  0  0  0  0  0  0  0
  -34.3030  -11.4900  -30.1900 O   0  0  0  0  0  0  0  0  0  0  0  0
  -31.7070  -11.4860  -28.4660 O   0  0  0  0  0  0  0  0  0  0  0  0
  -32.6420   -9.5200  -29.2930 O   0  0  0  0  0  0  0  0  0  0  0  0
  -29.3640  -10.1340  -26.0630 O   0  0  0  0  0  0  0  0  0  0  0  0
  -28.1120  -11.4270  -28.4480 O   0  0  0  0  0  0  0  0  0  0  0  0
  -28.9700  -12.8300  -22.5790 O   0  0  0  0  0  0  0  0  0  0  0  0
  -31.0950  -16.3740  -22.3470 O   0  0  0  0  0  0  0  0  0  0  0  0
  -36.4000  -12.2030  -18.0030 O   0  0  0  0  0  0  0  0  0  0  0  0
  -34.2270  -10.9610  -16.7580 O   0  0  0  0  0  0  0  0  0  0  0  0
  1  2  1  0
  2  3  1  6
  3  4  1  0
  4  5  1  0
  5  6  1  0
  7  8  1  0
  8  9  1  0
  9 10  1  0
 10 11  1  0
 11 12  1  0
 12 13  1  0
 13 14  1  0
 14 15  1  0
 15 16  1  0
 16 17  1  0
 17 18  1  0
 18 19  2  0
 19 20  1  0
 20 21  1  0
 21 22  1  0
 22 23  1  0
 23 24  1  0
 24 25  1  0
 25 26  1  1
 26 27  2  0
 28 27  1  6
 28 29  1  0
 29 30  1  0
 30 31  1  0
 31 32  1  0
 28 33  1  0
 32 33  1  0
 10 34  1  6
 16 35  1  6
 18 36  1  0
 20 37  1  1
 37 38  1  0
 38 39  2  0
 24 40  1  6
 26 41  1  0
  2 45  1  0
  6 45  1  0
  7 45  1  0
  1 46  1  0
 25 46  1  0
  1 47  2  0
  7 48  2  0
  8 49  2  0
  9 50  1  0
 13 50  1  1
  9 51  1  6
 12 52  1  6
 42 52  1  0
 14 53  1  1
 43 53  1  0
 21 54  2  0
 23 55  1  6
 30 56  1  1
 44 56  1  0
 31 57  1  1
M  END
$$$$
