7KZ9_XN7_B_601
     RDKit          3D

 11 10  0  0  0  0  0  0  0  0999 V2000
  -39.6257   51.2362  -25.5251 C   0  0  0  0  0  0  0  0  0  0  0  0
  -39.3091   50.1602  -24.5031 C   0  0  0  0  0  0  0  0  0  0  0  0
  -38.3770   48.1112  -25.4139 C   0  0  0  0  0  0  0  0  0  0  0  0
  -38.5260   47.0032  -24.4357 C   0  0  0  0  0  0  0  0  0  0  0  0
  -38.8019   44.5553  -23.8357 C   0  0  0  0  0  0  0  0  0  0  0  0
  -40.1327   44.3934  -23.1857 C   0  0  0  0  0  0  0  0  0  0  0  0
  -38.1497   49.3938  -24.8753 N   0  0  0  0  0  0  0  0  0  0  0  0
  -38.7026   45.6563  -24.7580 N   0  0  0  0  0  0  0  0  0  0  0  0
  -38.4808   52.0527  -25.6782 O   0  0  0  0  0  0  0  0  0  0  0  0
  -38.4776   47.3648  -23.2076 O   0  0  0  0  0  0  0  0  0  0  0  0
  -41.1903   44.1228  -24.0326 O   0  0  0  0  0  0  0  0  0  0  0  0
  1  2  1  0
  3  4  1  0
  5  6  1  0
  2  7  1  0
  3  7  1  0
  4  8  1  0
  5  8  1  0
  1  9  1  0
  4 10  2  0
  6 11  1  0
M  END
$$$$
