7UEY_N0R_A_403
     RDKit          3D

 27 29  0  0  0  0  0  0  0  0999 V2000
   -7.0190   34.6907  -27.1019 C   0  0  0  0  0  0  0  0  0  0  0  0
   -5.8773   35.5835  -27.6008 C   0  0  0  0  0  0  0  0  0  0  0  0
   -7.0185   36.4807  -25.3297 C   0  0  0  0  0  0  0  0  0  0  0  0
   -7.2067   37.3864  -26.5282 C   0  0  0  0  0  0  0  0  0  0  0  0
  -12.0674   32.3916  -22.4897 C   0  0  0  0  0  0  0  0  0  0  0  0
  -12.0538   33.0527  -23.6930 C   0  0  0  0  0  0  0  0  0  0  0  0
  -10.9871   33.8668  -24.0917 C   0  0  0  0  0  0  0  0  0  0  0  0
   -9.8913   34.0351  -23.2715 C   0  0  0  0  0  0  0  0  0  0  0  0
   -8.7602   34.8952  -23.6886 C   0  0  0  0  0  0  0  0  0  0  0  0
   -8.0818   34.2626  -24.8491 C   0  0  0  0  0  0  0  0  0  0  0  0
   -6.3377   37.7566  -28.8066 C   0  0  0  0  0  0  0  0  0  0  0  0
   -6.0040   39.1865  -31.0949 C   0  0  0  0  0  0  0  0  0  0  0  0
   -6.5646   39.8264  -29.9884 C   0  0  0  0  0  0  0  0  0  0  0  0
   -6.7271   39.0794  -28.8287 C   0  0  0  0  0  0  0  0  0  0  0  0
  -14.2778   31.2179  -22.7235 C   0  0  0  0  0  0  0  0  0  0  0  0
  -15.3404   30.3911  -22.0476 C   0  0  0  0  0  0  0  0  0  0  0  0
   -9.9138   33.3673  -22.0651 C   0  0  0  0  0  0  0  0  0  0  0  0
  -10.9637   32.5685  -21.6772 C   0  0  0  0  0  0  0  0  0  0  0  0
   -7.3780   35.1290  -25.7632 N   0  0  0  0  0  0  0  0  0  0  0  0
   -6.4606   36.9142  -27.6799 N   0  0  0  0  0  0  0  0  0  0  0  0
   -5.7990   37.2029  -29.9250 N   0  0  0  0  0  0  0  0  0  0  0  0
   -5.6461   37.9095  -31.0197 N   0  0  0  0  0  0  0  0  0  0  0  0
  -13.1101   31.5584  -22.0310 N   0  0  0  0  0  0  0  0  0  0  0  0
  -14.5077   31.5594  -23.8921 O   0  0  0  0  0  0  0  0  0  0  0  0
  -16.4037   30.1566  -22.9127 O   0  0  0  0  0  0  0  0  0  0  0  0
   -8.0983   33.0191  -25.0604 O   0  0  0  0  0  0  0  0  0  0  0  0
   -5.7508   40.0308  -32.6144 Cl  0  0  0  0  0  0  0  0  0  0  0  0
  1  2  1  0
  3  4  1  0
  5  6  2  0
  6  7  1  0
  7  8  2  0
  8  9  1  0
  9 10  1  1
 12 13  2  0
 13 14  1  0
 11 14  2  0
 15 16  1  0
  8 17  1  0
 17 18  2  0
  5 18  1  0
  1 19  1  1
  3 19  1  1
 10 19  1  0
 11 20  1  0
  2 20  1  1
  4 20  1  1
 11 21  1  0
 12 22  1  0
 21 22  2  0
  5 23  1  0
 15 23  1  0
 15 24  2  0
 16 25  1  1
 10 26  2  0
 12 27  1  0
M  END
$$$$
