6XUM_30L_A_401
     RDKit          3D

 25 26  0  0  0  0  0  0  0  0999 V2000
   83.0900    8.3100   67.0540 N   0  0  0  0  0  0  0  0  0  0  0  0
   82.0690    7.4740   67.6650 C   0  0  0  0  0  0  0  0  0  0  0  0
   81.0290    6.9560   66.7040 C   0  0  0  0  0  0  0  0  0  0  0  0
   80.0810    6.0490   67.1580 C   0  0  0  0  0  0  0  0  0  0  0  0
   79.1330    5.5780   66.2790 C   0  0  0  0  0  0  0  0  0  0  0  0
   78.1830    4.5860   66.7660 N   0  0  0  0  0  0  0  0  0  0  0  0
   77.4070    4.0860   65.9690 O   0  0  0  0  0  0  0  0  0  0  0  0
   78.2040    4.3040   67.9570 O   0  0  0  0  0  0  0  0  0  0  0  0
   79.0780    5.9690   64.9560 C   0  0  0  0  0  0  0  0  0  0  0  0
   80.0190    6.8800   64.5140 C   0  0  0  0  0  0  0  0  0  0  0  0
   80.9870    7.3650   65.3800 C   0  0  0  0  0  0  0  0  0  0  0  0
   82.9980    9.6400   67.0590 C   0  0  0  0  0  0  0  0  0  0  0  0
   82.0320   10.2260   67.5400 O   0  0  0  0  0  0  0  0  0  0  0  0
   84.1230   10.3960   66.4280 C   0  0  0  0  0  0  0  0  0  0  0  0
   83.7890   11.5350   65.6930 C   0  0  0  0  0  0  0  0  0  0  0  0
   84.7490   12.2490   65.0030 C   0  0  0  0  0  0  0  0  0  0  0  0
   86.0390   11.8050   65.0490 C   0  0  0  0  0  0  0  0  0  0  0  0
   86.9860   12.5000   64.3730 F   0  0  0  0  0  0  0  0  0  0  0  0
   86.4360   10.7010   65.7640 C   0  0  0  0  0  0  0  0  0  0  0  0
   85.4670   10.0130   66.4710 C   0  0  0  0  0  0  0  0  0  0  0  0
   85.7810    8.9620   67.2980 O   0  0  0  0  0  0  0  0  0  0  0  0
   86.9180    8.2070   66.9040 C   0  0  0  0  0  0  0  0  0  0  0  0
   86.5690    7.3590   65.7080 C   0  0  0  0  0  0  0  0  0  0  0  0
   87.5960    6.8000   65.1370 O   0  0  0  0  0  0  0  0  0  0  0  0
   85.4030    7.1470   65.3950 O   0  0  0  0  0  0  0  0  0  0  0  0
  1  2  1  0
  2  3  1  0
  3  4  2  0
  4  5  1  0
  5  6  1  0
  6  7  2  0
  6  8  1  0
  5  9  2  0
  9 10  1  0
 10 11  2  0
  3 11  1  0
  1 12  1  0
 12 13  2  0
 12 14  1  0
 14 15  2  0
 15 16  1  0
 16 17  2  0
 17 18  1  0
 17 19  1  0
 14 20  1  0
 19 20  2  0
 20 21  1  0
 21 22  1  0
 22 23  1  0
 23 24  2  0
 23 25  1  0
M  CHG  2   6   1   8  -1
M  END
$$$$
