
     RDKit          3D

 14 15  0  0  0  0  0  0  0  0999 V2000
   12.7211   26.9836    3.0349 C   0  0  0  0  0  0  0  0  0  0  0  0
   18.1616   24.5149    3.7064 C   0  0  0  0  0  0  0  0  0  0  0  0
   17.3214   26.7478    3.4365 C   0  0  0  0  0  0  0  0  0  0  0  0
   17.3821   27.9502    4.1604 C   0  0  0  0  0  0  0  0  0  0  0  0
   16.2302   28.7126    4.1897 C   0  0  0  0  0  0  0  0  0  0  0  0
   15.0853   27.2693    2.9372 C   0  0  0  0  0  0  0  0  0  0  0  0
   17.8580   29.6739    5.3321 C   0  0  0  0  0  0  0  0  0  0  0  0
   15.6607   30.8804    5.2829 C   0  0  0  0  0  0  0  0  0  0  0  0
   18.4263   25.8912    3.3516 N   0  0  0  0  0  0  0  0  0  0  0  0
   15.0586   28.4386    3.6018 N   0  0  0  0  0  0  0  0  0  0  0  0
   16.1452   26.4422    2.8242 N   0  0  0  0  0  0  0  0  0  0  0  0
   13.9421   26.8267    2.2787 N   0  0  0  0  0  0  0  0  0  0  0  0
   16.5513   29.8013    4.9493 N   0  0  0  0  0  0  0  0  0  0  0  0
   18.3988   28.5667    4.8659 N   0  0  0  0  0  0  0  0  0  0  0  0
  3  4  4  0
  4  5  4  0
  2  9  1  0
  3  9  1  0
  5 10  4  0
  6 10  4  0
  3 11  4  0
  6 11  4  0
  6 12  1  0
  1 12  1  0
  7 13  4  0
  5 13  4  0
  8 13  1  0
  7 14  4  0
  4 14  4  0
M  END
