7T0U_E3I_A_204
     RDKit          3D

 77 82  0  0  0  0  0  0  0  0999 V2000
  -36.5818    4.8628   12.5614 C   0  0  2  0  0  0  0  0  0  0  0  0
  -39.0020    4.6634   12.1480 C   0  0  0  0  0  0  0  0  0  0  0  0
  -40.3192    4.8219   12.5719 C   0  0  0  0  0  0  0  0  0  0  0  0
  -41.5550    4.5443   11.9971 C   0  0  0  0  0  0  0  0  0  0  0  0
  -41.8480    3.8562   10.7236 C   0  0  0  0  0  0  0  0  0  0  0  0
  -41.0427    2.7983   10.2853 C   0  0  0  0  0  0  0  0  0  0  0  0
  -41.3389    2.1232    9.0985 C   0  0  0  0  0  0  0  0  0  0  0  0
  -42.4629    2.4970    8.3347 C   0  0  0  0  0  0  0  0  0  0  0  0
  -43.2924    3.5508    8.7786 C   0  0  0  0  0  0  0  0  0  0  0  0
  -44.4955    3.9519    8.0083 C   0  0  0  0  0  0  0  0  0  0  0  0
  -42.9791    4.2146    9.9778 C   0  0  0  0  0  0  0  0  0  0  0  0
  -42.5050    4.9972   12.9124 C   0  0  0  0  0  0  0  0  0  0  0  0
  -42.5431    6.0383   15.2016 C   0  0  1  0  0  0  0  0  0  0  0  0
  -42.4404    5.0433   16.3214 C   0  0  0  0  0  0  0  0  0  0  0  0
  -42.3978    4.8309   18.8496 C   0  0  0  0  0  0  0  0  0  0  0  0
  -41.2816    5.4167   19.4721 C   0  0  0  0  0  0  0  0  0  0  0  0
  -40.7902    4.8954   20.6866 C   0  0  0  0  0  0  0  0  0  0  0  0
  -39.0227    4.7078   22.4767 C   0  0  1  0  0  0  0  0  0  0  0  0
  -38.3372    3.4406   21.9434 C   0  0  1  0  0  0  0  0  0  0  0  0
  -38.0178    5.5224   23.3299 C   0  0  1  0  0  0  0  0  0  0  0  0
  -39.5638    7.3321   23.9420 C   0  0  2  0  0  0  0  0  0  0  0  0
  -39.6570    8.7951   24.3264 C   0  0  2  0  0  0  0  0  0  0  0  0
  -39.5738    7.1299   25.4437 C   0  0  2  0  0  0  0  0  0  0  0  0
  -38.1565    7.4453   21.9243 C   0  0  2  0  0  0  0  0  0  0  0  0
  -39.2157    6.8396   20.9966 C   0  0  2  0  0  0  0  0  0  0  0  0
  -42.5204    3.2506   20.6747 C   0  0  0  0  0  0  0  0  0  0  0  0
  -43.0278    3.7389   19.4706 C   0  0  0  0  0  0  0  0  0  0  0  0
  -40.5720    5.4018   13.7733 C   0  0  0  0  0  0  0  0  0  0  0  0
  -38.2785    5.6269   14.2220 C   0  0  0  0  0  0  0  0  0  0  0  0
  -37.2079    6.0832   15.1867 C   0  0  1  0  0  0  0  0  0  0  0  0
  -36.5831    4.9843   15.7462 F   0  0  0  0  0  0  0  0  0  0  0  0
  -36.2750    6.8711   14.5378 F   0  0  0  0  0  0  0  0  0  0  0  0
  -37.7676    6.8321   16.2077 F   0  0  0  0  0  0  0  0  0  0  0  0
  -37.9796    5.0341   12.9994 N   0  0  0  0  0  0  0  0  0  0  0  0
  -45.8093    3.7421    8.5308 N   0  0  0  0  0  0  0  0  0  0  0  0
  -41.8924    5.5257   13.9970 N   0  0  0  0  0  0  0  0  0  0  0  0
  -42.9313    5.3781   17.6290 N   0  0  0  0  0  0  0  0  0  0  0  0
  -39.6336    5.4693   21.3581 N   0  0  0  0  0  0  0  0  0  0  0  0
  -38.2724    6.9709   23.3120 N   0  0  0  0  0  0  0  0  0  0  0  0
  -41.4333    3.8304   21.2437 N   0  0  0  0  0  0  0  0  0  0  0  0
  -39.5809    5.8013   14.5987 N   0  0  0  0  0  0  0  0  0  0  0  0
  -38.7587    4.2101   10.9964 O   0  0  0  0  0  0  0  0  0  0  0  0
  -42.7611    1.8445    7.1352 O   0  0  0  0  0  0  0  0  0  0  0  0
  -44.3683    4.4876    6.8753 O   0  0  0  0  0  0  0  0  0  0  0  0
  -39.6867    8.5075   25.7028 O   0  0  0  0  0  0  0  0  0  0  0  0
  -41.9018    3.9229   16.1092 O   0  0  0  0  0  0  0  0  0  0  0  0
  -40.2808    0.8078    8.6021 Cl  0  0  0  0  0  0  0  0  0  0  0  0
  -44.4235    2.9450   18.7522 Cl  0  0  0  0  0  0  0  0  0  0  0  0
  -36.3083    5.6763   11.8570 H   0  0  0  0  0  0  0  0  0  0  0  0
  -36.4236    3.8883   12.0535 H   0  0  0  0  0  0  0  0  0  0  0  0
  -35.8862    4.8652   13.4240 H   0  0  0  0  0  0  0  0  0  0  0  0
  -40.1951    2.4797   10.8796 H   0  0  0  0  0  0  0  0  0  0  0  0
  -43.6212    5.0060   10.3443 H   0  0  0  0  0  0  0  0  0  0  0  0
  -43.5790    4.9150   12.8013 H   0  0  0  0  0  0  0  0  0  0  0  0
  -43.6091    6.2617   14.9790 H   0  0  0  0  0  0  0  0  0  0  0  0
  -42.0618    6.9885   15.5164 H   0  0  0  0  0  0  0  0  0  0  0  0
  -40.8242    6.2829   19.0188 H   0  0  0  0  0  0  0  0  0  0  0  0
  -39.8340    4.3926   23.1704 H   0  0  0  0  0  0  0  0  0  0  0  0
  -38.0217    2.7912   22.7888 H   0  0  0  0  0  0  0  0  0  0  0  0
  -39.0269    2.8518   21.3052 H   0  0  0  0  0  0  0  0  0  0  0  0
  -37.4430    3.7121   21.3420 H   0  0  0  0  0  0  0  0  0  0  0  0
  -38.0338    5.1433   24.3751 H   0  0  0  0  0  0  0  0  0  0  0  0
  -36.9747    5.3458   22.9790 H   0  0  0  0  0  0  0  0  0  0  0  0
  -40.4742    6.9415   23.4357 H   0  0  0  0  0  0  0  0  0  0  0  0
  -40.6088    9.2650   23.9947 H   0  0  0  0  0  0  0  0  0  0  0  0
  -38.7567    9.3980   24.0776 H   0  0  0  0  0  0  0  0  0  0  0  0
  -38.6226    6.7326   25.8620 H   0  0  0  0  0  0  0  0  0  0  0  0
  -40.4751    6.5815   25.7954 H   0  0  0  0  0  0  0  0  0  0  0  0
  -38.2225    8.5531   21.8860 H   0  0  0  0  0  0  0  0  0  0  0  0
  -37.1450    7.1964   21.5309 H   0  0  0  0  0  0  0  0  0  0  0  0
  -38.8096    6.8414   19.9619 H   0  0  0  0  0  0  0  0  0  0  0  0
  -40.1070    7.5055   21.0196 H   0  0  0  0  0  0  0  0  0  0  0  0
  -42.9888    2.4052   21.1618 H   0  0  0  0  0  0  0  0  0  0  0  0
  -46.0379    3.9489    9.5278 H   0  0  0  0  0  0  0  0  0  0  0  0
  -46.5819    3.4404    7.8961 H   0  0  0  0  0  0  0  0  0  0  0  0
  -43.7427    6.0322   17.6912 H   0  0  0  0  0  0  0  0  0  0  0  0
  -42.2265    1.0595    6.7861 H   0  0  0  0  0  0  0  0  0  0  0  0
  2  3  1  0
  3  4  1  0
  4  5  1  0
  5  6  2  0
  6  7  1  0
  7  8  2  0
  8  9  1  0
  9 10  1  0
  9 11  2  0
  5 11  1  0
  4 12  2  0
 13 14  1  0
 15 16  2  0
 16 17  1  0
 18 19  1  0
 18 20  1  0
 21 22  1  0
 21 23  1  0
 24 25  1  0
 15 27  1  0
 26 27  2  0
  3 28  2  0
 29 30  1  0
 30 31  1  1
 30 32  1  0
 30 33  1  0
  2 34  1  0
  1 34  1  0
 29 34  1  0
 10 35  1  0
 12 36  1  0
 13 36  1  0
 28 36  1  0
 14 37  1  0
 15 37  1  0
 17 38  1  0
 18 38  1  0
 25 38  1  0
 20 39  1  0
 24 39  1  0
 21 39  1  0
 26 40  1  0
 17 40  2  0
 28 41  1  0
 29 41  2  0
  2 42  2  0
  8 43  1  0
 10 44  2  0
 22 45  1  0
 23 45  1  0
 14 46  2  0
  7 47  1  0
 27 48  1  0
  1 49  1  6
  1 50  1  0
  1 51  1  0
  6 52  1  0
 11 53  1  0
 12 54  1  0
 13 55  1  6
 13 56  1  0
 16 57  1  0
 18 58  1  1
 19 59  1  1
 19 60  1  0
 19 61  1  0
 20 62  1  1
 20 63  1  0
 21 64  1  6
 22 65  1  6
 22 66  1  0
 23 67  1  1
 23 68  1  0
 24 69  1  1
 24 70  1  0
 25 71  1  6
 25 72  1  0
 26 73  1  0
 35 74  1  0
 35 75  1  0
 37 76  1  0
 43 77  1  0
M  END
