1HNN_SKF_A_3001
     RDKit          3D

 26 27  0  0  0  0  0  0  0  0999 V2000
   21.1506   33.0522   20.1141 C   0  0  0  0  0  0  0  0  0  0  0  0
   21.2475   31.7961   20.7170 C   0  0  0  0  0  0  0  0  0  0  0  0
   20.4815   30.7249   20.2419 C   0  0  0  0  0  0  0  0  0  0  0  0
   19.6224   30.9166   19.1523 C   0  0  0  0  0  0  0  0  0  0  0  0
   20.6247   29.1349   20.9854 S   0  0  1  0  0  6  0  0  0  0  0  0
   19.5070   32.1790   18.5502 C   0  0  0  0  0  0  0  0  0  0  0  0
   20.2957   33.2503   19.0199 C   0  0  0  0  0  0  0  0  0  0  0  0
   21.8073   28.4073   20.4099 O   0  0  0  0  0  0  0  0  0  0  0  0
   20.8262   29.2834   22.4674 O   0  0  0  0  0  0  0  0  0  0  0  0
   19.1868   28.2233   20.6872 N   0  0  0  0  0  0  0  0  0  0  0  0
   18.6194   32.3480   17.3388 C   0  0  1  0  0  0  0  0  0  0  0  0
   19.4796   34.5887   17.0506 C   0  0  1  0  0  0  0  0  0  0  0  0
   20.1668   34.6266   18.4210 C   0  0  1  0  0  0  0  0  0  0  0  0
   18.2723   33.7546   17.0919 N   0  0  0  0  0  0  0  0  0  0  0  0
   21.7435   33.8725   20.4999 H   0  0  0  0  0  0  0  0  0  0  0  0
   21.9219   31.6597   21.5528 H   0  0  0  0  0  0  0  0  0  0  0  0
   19.0463   30.0833   18.7687 H   0  0  0  0  0  0  0  0  0  0  0  0
   18.3800   28.8716   20.8292 H   0  0  0  0  0  0  0  0  0  0  0  0
   19.1251   27.4977   21.4362 H   0  0  0  0  0  0  0  0  0  0  0  0
   19.1391   31.9333   16.4480 H   0  0  0  0  0  0  0  0  0  0  0  0
   17.6813   31.7674   17.4779 H   0  0  0  0  0  0  0  0  0  0  0  0
   19.1996   35.6220   16.7536 H   0  0  0  0  0  0  0  0  0  0  0  0
   20.1852   34.2009   16.2820 H   0  0  0  0  0  0  0  0  0  0  0  0
   19.5692   35.2592   19.1124 H   0  0  0  0  0  0  0  0  0  0  0  0
   21.1718   35.0885   18.3085 H   0  0  0  0  0  0  0  0  0  0  0  0
   17.6486   34.0911   17.8636 H   0  0  0  0  0  0  0  0  0  0  0  0
  1  2  2  0
  2  3  1  0
  3  4  2  0
  3  5  1  0
  4  6  1  0
  1  7  1  0
  6  7  2  0
  5  8  2  0
  5  9  2  0
  5 10  1  1
  6 11  1  0
  7 13  1  0
 12 13  1  0
 11 14  1  0
 12 14  1  0
  1 15  1  0
  2 16  1  0
  4 17  1  0
 10 18  1  0
 10 19  1  0
 11 20  1  6
 11 21  1  0
 12 22  1  6
 12 23  1  0
 13 24  1  1
 13 25  1  0
 14 26  1  0
M  END
