7SDD_4IP_A_500
     RDKit          3D

 28 28  0  0  0  0  0  0  0  0999 V2000
    9.8345   -1.4921   -5.4287 C   0  0  2  0  0  0  0  0  0  0  0  0
    9.4597   -0.2819   -4.7997 O   0  0  0  0  0  0  0  0  0  0  0  0
   11.1220   -1.9002   -4.7979 C   0  0  2  0  0  0  0  0  0  0  0  0
   11.4506   -1.1500   -3.6703 O   0  0  0  0  0  0  0  0  0  0  0  0
   12.2355   -1.7022   -5.8086 C   0  0  2  0  0  0  0  0  0  0  0  0
   12.3311   -0.4197   -6.2844 O   0  0  0  0  0  0  0  0  0  0  0  0
   11.9314   -2.7234   -6.9136 C   0  0  1  0  0  0  0  0  0  0  0  0
   11.8151   -3.9375   -6.2203 O   0  0  0  0  0  0  0  0  0  0  0  0
   10.6338   -2.3581   -7.6096 C   0  0  2  0  0  0  0  0  0  0  0  0
   10.9256   -2.0934   -8.9125 O   0  0  0  0  0  0  0  0  0  0  0  0
    9.8667   -1.2890   -6.9025 C   0  0  1  0  0  0  0  0  0  0  0  0
    8.5298   -1.4120   -7.3468 O   0  0  0  0  0  0  0  0  0  0  0  0
    7.7758   -0.1417   -4.7461 P   0  0  2  0  0  0  0  0  0  0  0  0
    7.3760    1.2358   -4.2677 O   0  0  0  0  0  0  0  0  0  0  0  0
    7.1883   -1.2643   -3.6439 O   0  0  0  0  0  0  0  0  0  0  0  0
    7.0954   -0.3490   -6.2810 O   0  0  0  0  0  0  0  0  0  0  0  0
   13.4728    0.4664   -5.4282 P   0  0  2  0  0  0  0  0  0  0  0  0
   12.8482    1.3009   -4.3365 O   0  0  0  0  0  0  0  0  0  0  0  0
   14.3748    1.5033   -6.4212 O   0  0  0  0  0  0  0  0  0  0  0  0
   14.5842   -0.6283   -4.7339 O   0  0  0  0  0  0  0  0  0  0  0  0
   13.1534   -4.9245   -6.3590 P   0  0  1  0  0  0  0  0  0  0  0  0
   12.7602   -6.3910   -5.5724 O   0  0  0  0  0  0  0  0  0  0  0  0
   13.4671   -5.3047   -7.9783 O   0  0  0  0  0  0  0  0  0  0  0  0
   14.3733   -4.3645   -5.7025 O   0  0  0  0  0  0  0  0  0  0  0  0
   10.1845   -2.9852  -10.0824 P   0  0  2  0  0  0  0  0  0  0  0  0
   10.3532   -4.6391   -9.6699 O   0  0  0  0  0  0  0  0  0  0  0  0
   10.7957   -2.8642  -11.4500 O   0  0  0  0  0  0  0  0  0  0  0  0
    8.5299   -2.6560  -10.0861 O   0  0  0  0  0  0  0  0  0  0  0  0
  1  2  1  1
  1  3  1  0
  3  4  1  1
  3  5  1  0
  5  6  1  6
  5  7  1  0
  7  8  1  1
  7  9  1  0
  9 10  1  6
  1 11  1  0
  9 11  1  0
 11 12  1  6
  2 13  1  0
 13 14  2  0
 13 15  1  1
 13 16  1  0
  6 17  1  0
 17 18  2  0
 17 19  1  6
 17 20  1  0
  8 21  1  0
 21 22  1  1
 21 23  1  0
 21 24  2  0
 10 25  1  0
 25 26  1  1
 25 27  2  0
 25 28  1  0
M  END
$$$$
