7NP6_UK8_A_601
     RDKit          3D

 32 35  0  0  0  0  0  0  0  0999 V2000
   -4.8060   41.0830   14.1360 C   0  0  0  0  0  0  0  0  0  0  0  0
   -5.2280   43.8500   14.3170 C   0  0  0  0  0  0  0  0  0  0  0  0
   -5.5150   45.3130   14.4550 C   0  0  0  0  0  0  0  0  0  0  0  0
    1.2410   44.9390   16.9310 C   0  0  0  0  0  0  0  0  0  0  0  0
    2.0850   44.4780   17.9230 C   0  0  0  0  0  0  0  0  0  0  0  0
    3.1860   42.6310   19.2210 C   0  0  0  0  0  0  0  0  0  0  0  0
   -3.9070   41.9780   13.5700 C   0  0  0  0  0  0  0  0  0  0  0  0
   -5.9090   41.5740   14.7870 C   0  0  0  0  0  0  0  0  0  0  0  0
   -6.1180   42.9370   14.8770 C   0  0  0  0  0  0  0  0  0  0  0  0
   -1.3140   45.4150   12.3770 C   0  0  0  0  0  0  0  0  0  0  0  0
   -0.0290   46.0670   12.1320 C   0  0  0  0  0  0  0  0  0  0  0  0
    0.3060   46.9280   11.0730 C   0  0  0  0  0  0  0  0  0  0  0  0
    1.1090   45.9910   12.9070 C   0  0  0  0  0  0  0  0  0  0  0  0
    2.2610   43.1160   18.1290 C   0  0  0  0  0  0  0  0  0  0  0  0
    1.5630   42.2210   17.3240 C   0  0  0  0  0  0  0  0  0  0  0  0
    0.7080   42.6720   16.3300 C   0  0  0  0  0  0  0  0  0  0  0  0
    0.5500   44.0390   16.1340 C   0  0  0  0  0  0  0  0  0  0  0  0
   -0.9590   43.7030   14.2760 C   0  0  0  0  0  0  0  0  0  0  0  0
   -1.7630   44.4470   13.2640 C   0  0  0  0  0  0  0  0  0  0  0  0
   -3.1260   44.2770   13.0210 C   0  0  0  0  0  0  0  0  0  0  0  0
   -4.1060   43.3530   13.6270 C   0  0  0  0  0  0  0  0  0  0  0  0
   -5.9950   45.8610   13.3430 F   0  0  0  0  0  0  0  0  0  0  0  0
   -6.4210   45.5410   15.3950 F   0  0  0  0  0  0  0  0  0  0  0  0
   -4.4480   46.0450   14.7940 F   0  0  0  0  0  0  0  0  0  0  0  0
   -3.5060   45.0600   12.0360 N   0  0  0  0  0  0  0  0  0  0  0  0
    1.5570   47.3440   11.2060 N   0  0  0  0  0  0  0  0  0  0  0  0
    2.0340   46.7610   12.3270 N   0  0  0  0  0  0  0  0  0  0  0  0
    3.4990   41.4180   19.2420 O   0  0  0  0  0  0  0  0  0  0  0  0
    3.5210   43.4540   20.0910 O   0  0  0  0  0  0  0  0  0  0  0  0
   -0.2800   44.5950   15.1870 O   0  0  0  0  0  0  0  0  0  0  0  0
   -2.3710   45.7980   11.6250 O   0  0  0  0  0  0  0  0  0  0  0  0
   -2.5350   41.3530   12.7390 Cl  0  0  0  0  0  0  0  0  0  0  0  0
  2  3  1  0
  4  5  2  0
  1  7  2  0
  1  8  1  0
  2  9  1  0
  8  9  2  0
 10 11  1  0
 11 12  2  0
 11 13  1  0
  5 14  1  0
  6 14  1  0
 14 15  2  0
 15 16  1  0
 16 17  2  0
  4 17  1  0
 10 19  2  0
 18 19  1  0
 19 20  1  0
 20 21  1  0
  7 21  1  0
  2 21  2  0
  3 22  1  0
  3 23  1  0
  3 24  1  0
 20 25  2  0
 12 26  1  0
 26 27  1  0
 13 27  2  0
  6 28  2  0
  6 29  1  0
 18 30  1  0
 17 30  1  0
 25 31  1  0
 10 31  1  0
  7 32  1  0
M  END
$$$$
