1HVY_D16_D_417
     RDKit          3D

 32 34  0  0  0  0  0  0  0  0999 V2000
   21.9527   11.8977   16.2772 N   0  0  0  0  0  0  0  0  0  0  0  0
   22.2468   11.3283   17.4676 C   0  0  0  0  0  0  0  0  0  0  0  0
   21.5690   11.8009   18.6881 C   0  0  0  0  0  0  0  0  0  0  0  0
   23.1650   10.3318   17.5014 N   0  0  0  0  0  0  0  0  0  0  0  0
   23.7854    9.8967   16.3933 C   0  0  0  0  0  0  0  0  0  0  0  0
   24.6240    8.9777   16.4657 O   0  0  0  0  0  0  0  0  0  0  0  0
   23.5128   10.4473   15.1791 C   0  0  0  0  0  0  0  0  0  0  0  0
   24.1396   10.0042   14.0057 C   0  0  0  0  0  0  0  0  0  0  0  0
   23.7731   10.6308   12.8465 C   0  0  0  0  0  0  0  0  0  0  0  0
   22.8325   11.6550   12.8102 C   0  0  0  0  0  0  0  0  0  0  0  0
   22.2104   12.0972   13.9535 C   0  0  0  0  0  0  0  0  0  0  0  0
   22.5659   11.4782   15.1278 C   0  0  0  0  0  0  0  0  0  0  0  0
   24.3263   10.2564   11.4967 C   0  0  0  0  0  0  0  0  0  0  0  0
   23.4178    9.2318   10.9974 N   0  0  0  0  0  0  0  0  0  0  0  0
   24.1111    7.7643    7.2526 C   0  0  0  0  0  0  0  0  0  0  0  0
   24.8540    8.9831    8.4968 S   0  0  0  0  0  0  0  0  0  0  0  0
   23.5420    8.6252    9.7238 C   0  0  0  0  0  0  0  0  0  0  0  0
   22.7309    7.6931    9.1279 C   0  0  0  0  0  0  0  0  0  0  0  0
   23.0350    7.2789    7.8942 C   0  0  0  0  0  0  0  0  0  0  0  0
   24.6326    7.5184    5.9790 C   0  0  0  0  0  0  0  0  0  0  0  0
   24.0504    6.7301    5.1896 O   0  0  0  0  0  0  0  0  0  0  0  0
   25.8526    8.1576    5.5184 N   0  0  0  0  0  0  0  0  0  0  0  0
   26.2623    7.9240    4.1142 C   0  0  1  0  0  0  0  0  0  0  0  0
   26.4354    9.2075    3.4183 C   0  0  0  0  0  0  0  0  0  0  0  0
   25.1809    9.9603    3.1656 C   0  0  0  0  0  0  0  0  0  0  0  0
   25.3488   11.2610    2.4777 C   0  0  0  0  0  0  0  0  0  0  0  0
   26.4508   11.6672    2.0076 O   0  0  0  0  0  0  0  0  0  0  0  0
   24.2360   12.0914    2.3364 O   0  0  0  0  0  0  0  0  0  0  0  0
   27.3933    7.0337    4.1198 C   0  0  0  0  0  0  0  0  0  0  0  0
   28.1949    7.1571    5.1436 O   0  0  0  0  0  0  0  0  0  0  0  0
   27.7614    6.0672    3.2245 O   0  0  0  0  0  0  0  0  0  0  0  0
   22.3141    8.7734   11.8510 C   0  0  0  0  0  0  0  0  0  0  0  0
  1  2  1  0
  2  3  1  0
  2  4  2  0
  4  5  1  0
  5  6  2  0
  5  7  1  0
  7  8  1  0
  8  9  2  0
  9 10  1  0
 10 11  2  0
  1 12  1  0
  7 12  2  0
 11 12  1  0
  9 13  1  0
 13 14  1  0
 15 16  1  0
 14 17  1  0
 16 17  1  0
 17 18  2  0
 15 19  2  0
 18 19  1  0
 15 20  1  0
 20 21  2  0
 20 22  1  0
 22 23  1  0
 23 24  1  1
 24 25  1  0
 25 26  1  0
 26 27  2  0
 26 28  1  0
 23 29  1  0
 29 30  2  0
 29 31  1  0
 14 32  1  0
M  END
$$$$
