1HVY_D16_D_417
     RDKit          3D

 32 34  0  0  0  0  0  0  0  0999 V2000
   31.3179   38.5651   39.2720 N   0  0  0  0  0  0  0  0  0  0  0  0
   32.1078   39.6049   39.6221 C   0  0  0  0  0  0  0  0  0  0  0  0
   32.2531   40.7499   38.7054 C   0  0  0  0  0  0  0  0  0  0  0  0
   32.7480   39.5608   40.8160 N   0  0  0  0  0  0  0  0  0  0  0  0
   32.6194   38.5210   41.6554 C   0  0  0  0  0  0  0  0  0  0  0  0
   33.2246   38.5178   42.7448 O   0  0  0  0  0  0  0  0  0  0  0  0
   31.8320   37.4584   41.3347 C   0  0  0  0  0  0  0  0  0  0  0  0
   31.6732   36.3651   42.1981 C   0  0  0  0  0  0  0  0  0  0  0  0
   30.8473   35.3640   41.7661 C   0  0  0  0  0  0  0  0  0  0  0  0
   30.1913   35.4067   40.5403 C   0  0  0  0  0  0  0  0  0  0  0  0
   30.3380   36.4736   39.6859 C   0  0  0  0  0  0  0  0  0  0  0  0
   31.1637   37.4894   40.1041 C   0  0  0  0  0  0  0  0  0  0  0  0
   30.5441   34.1357   42.5830 C   0  0  0  0  0  0  0  0  0  0  0  0
   29.5841   34.5861   43.5831 N   0  0  0  0  0  0  0  0  0  0  0  0
   28.6242   31.9837   46.5771 C   0  0  0  0  0  0  0  0  0  0  0  0
   29.7555   32.1048   45.0635 S   0  0  0  0  0  0  0  0  0  0  0  0
   29.1662   33.7966   44.6821 C   0  0  0  0  0  0  0  0  0  0  0  0
   28.2449   34.0891   45.6553 C   0  0  0  0  0  0  0  0  0  0  0  0
   27.9909   33.1685   46.5902 C   0  0  0  0  0  0  0  0  0  0  0  0
   28.5335   30.8634   47.4085 C   0  0  0  0  0  0  0  0  0  0  0  0
   27.8540   30.9045   48.4668 O   0  0  0  0  0  0  0  0  0  0  0  0
   29.2096   29.6189   47.0873 N   0  0  0  0  0  0  0  0  0  0  0  0
   29.0368   28.4824   48.0216 C   0  0  1  0  0  0  0  0  0  0  0  0
   28.2404   27.4226   47.3859 C   0  0  0  0  0  0  0  0  0  0  0  0
   26.8401   27.7958   47.0628 C   0  0  0  0  0  0  0  0  0  0  0  0
   26.0357   26.7376   46.4099 C   0  0  0  0  0  0  0  0  0  0  0  0
   26.4315   25.5444   46.2683 O   0  0  0  0  0  0  0  0  0  0  0  0
   24.7708   27.0657   45.9197 O   0  0  0  0  0  0  0  0  0  0  0  0
   30.3356   28.1073   48.5156 C   0  0  0  0  0  0  0  0  0  0  0  0
   31.3248   28.2979   47.6842 O   0  0  0  0  0  0  0  0  0  0  0  0
   30.7043   27.5882   49.7264 O   0  0  0  0  0  0  0  0  0  0  0  0
   29.0174   35.9367   43.4770 C   0  0  0  0  0  0  0  0  0  0  0  0
  1  2  1  0
  2  3  1  0
  2  4  2  0
  4  5  1  0
  5  6  2  0
  5  7  1  0
  7  8  1  0
  8  9  2  0
  9 10  1  0
 10 11  2  0
  1 12  1  0
  7 12  2  0
 11 12  1  0
  9 13  1  0
 13 14  1  0
 15 16  1  0
 14 17  1  0
 16 17  1  0
 17 18  2  0
 15 19  2  0
 18 19  1  0
 15 20  1  0
 20 21  2  0
 20 22  1  0
 22 23  1  0
 23 24  1  6
 24 25  1  0
 25 26  1  0
 26 27  2  0
 26 28  1  0
 23 29  1  0
 29 30  2  0
 29 31  1  0
 14 32  1  0
M  END
$$$$
