1HVY_D16_D_417
     RDKit          3D

 32 34  0  0  0  0  0  0  0  0999 V2000
   25.1341   19.3810   19.9290 N   0  0  0  0  0  0  0  0  0  0  0  0
   24.5186   20.2547   20.7571 C   0  0  0  0  0  0  0  0  0  0  0  0
   24.8580   21.6872   20.6867 C   0  0  0  0  0  0  0  0  0  0  0  0
   23.6008   19.7809   21.6348 N   0  0  0  0  0  0  0  0  0  0  0  0
   23.2871   18.4774   21.7033 C   0  0  0  0  0  0  0  0  0  0  0  0
   22.4374   18.0807   22.5242 O   0  0  0  0  0  0  0  0  0  0  0  0
   23.8870   17.5711   20.8844 C   0  0  0  0  0  0  0  0  0  0  0  0
   23.5698   16.2061   20.9294 C   0  0  0  0  0  0  0  0  0  0  0  0
   24.2343   15.3980   20.0483 C   0  0  0  0  0  0  0  0  0  0  0  0
   25.1780   15.8822   19.1485 C   0  0  0  0  0  0  0  0  0  0  0  0
   25.4965   17.2184   19.0940 C   0  0  0  0  0  0  0  0  0  0  0  0
   24.8378   18.0455   19.9718 C   0  0  0  0  0  0  0  0  0  0  0  0
   23.9902   13.9154   19.9447 C   0  0  0  0  0  0  0  0  0  0  0  0
   22.8784   13.7894   19.0106 N   0  0  0  0  0  0  0  0  0  0  0  0
   23.3064   11.1614   15.9175 C   0  0  0  0  0  0  0  0  0  0  0  0
   24.2522   11.7892   17.4329 S   0  0  0  0  0  0  0  0  0  0  0  0
   22.8807   12.9092   17.9013 C   0  0  0  0  0  0  0  0  0  0  0  0
   21.9138   12.7194   16.9469 C   0  0  0  0  0  0  0  0  0  0  0  0
   22.1491   11.8422   15.9665 C   0  0  0  0  0  0  0  0  0  0  0  0
   23.8017   10.2193   15.0110 C   0  0  0  0  0  0  0  0  0  0  0  0
   24.9288    9.6890   15.1900 O   0  0  0  0  0  0  0  0  0  0  0  0
   23.0432    9.8161   13.8400 N   0  0  0  0  0  0  0  0  0  0  0  0
   23.5700    8.6897   13.0350 C   0  0  1  0  0  0  0  0  0  0  0  0
   22.5723    7.6124   12.9599 C   0  0  0  0  0  0  0  0  0  0  0  0
   22.3215    6.8971   14.2366 C   0  0  0  0  0  0  0  0  0  0  0  0
   21.3121    5.8155   14.1704 C   0  0  0  0  0  0  0  0  0  0  0  0
   20.6213    5.5647   13.1407 O   0  0  0  0  0  0  0  0  0  0  0  0
   21.1038    5.0250   15.3016 O   0  0  0  0  0  0  0  0  0  0  0  0
   24.0469    9.2179   11.7838 C   0  0  0  0  0  0  0  0  0  0  0  0
   23.3093   10.1592   11.2587 O   0  0  0  0  0  0  0  0  0  0  0  0
   25.1598    8.8968   11.0560 O   0  0  0  0  0  0  0  0  0  0  0  0
   21.6699   14.5971   19.2202 C   0  0  0  0  0  0  0  0  0  0  0  0
  1  2  1  0
  2  3  1  0
  2  4  2  0
  4  5  1  0
  5  6  2  0
  5  7  1  0
  7  8  1  0
  8  9  2  0
  9 10  1  0
 10 11  2  0
  1 12  1  0
  7 12  2  0
 11 12  1  0
  9 13  1  0
 13 14  1  0
 15 16  1  0
 14 17  1  0
 16 17  1  0
 17 18  2  0
 15 19  2  0
 18 19  1  0
 15 20  1  0
 20 21  2  0
 20 22  1  0
 22 23  1  0
 23 24  1  6
 24 25  1  0
 25 26  1  0
 26 27  2  0
 26 28  1  0
 23 29  1  0
 29 30  2  0
 29 31  1  0
 14 32  1  0
M  END
$$$$
