7TXK_LW8_A_601
     RDKit          3D

 15 15  0  0  0  0  0  0  0  0999 V2000
   28.7110   45.3740   91.6380 O   0  0  0  0  0  0  0  0  0  0  0  0
   28.8740   45.5850   90.4190 C   0  0  0  0  0  0  0  0  0  0  0  0
   27.8660   45.8240   89.6870 O   0  0  0  0  0  0  0  0  0  0  0  0
   30.3180   45.4850   89.8850 C   0  0  1  0  0  0  0  0  0  0  0  0
   31.0870   46.7020   90.1890 N   0  0  0  0  0  0  0  0  0  0  0  0
   31.3350   46.9350   91.5990 C   0  0  0  0  0  0  0  0  0  0  0  0
   32.3910   46.6570   89.5270 C   0  0  0  0  0  0  0  0  0  0  0  0
   30.3720   47.8750   89.6520 C   0  0  0  0  0  0  0  0  0  0  0  0
   30.9580   44.1930   90.4410 C   0  0  0  0  0  0  0  0  0  0  0  0
   30.1900   42.8610   90.2380 C   0  0  0  0  0  0  0  0  0  0  0  0
   30.3310   41.7670   90.9980 N   0  0  0  0  0  0  0  0  0  0  0  0
   29.5310   40.7920   90.5400 C   0  0  0  0  0  0  0  0  0  0  0  0
   29.3610   39.2810   91.1270 S   0  0  0  0  0  0  0  0  0  0  0  0
   28.8790   41.2740   89.4770 N   0  0  0  0  0  0  0  0  0  0  0  0
   29.2550   42.5230   89.2610 C   0  0  0  0  0  0  0  0  0  0  0  0
  1  2  1  0
  2  3  2  0
  2  4  1  0
  4  5  1  0
  5  6  1  0
  5  7  1  0
  5  8  1  0
  4  9  1  1
  9 10  1  0
 10 11  1  0
 11 12  1  0
 12 13  2  0
 12 14  1  0
 10 15  2  0
 14 15  1  0
M  CHG  1   5   1
M  END
$$$$
