1KZK_JE2_A_701
     RDKit          3D

 41 44  0  0  0  0  0  0  0  0999 V2000
   16.0071    0.6700   28.2215 C   0  0  0  0  0  0  0  0  0  0  0  0
   16.4717    1.9211   27.9379 C   0  0  0  0  0  0  0  0  0  0  0  0
   17.0725    2.1782   26.7152 C   0  0  0  0  0  0  0  0  0  0  0  0
   17.2319    1.2091   25.7407 C   0  0  0  0  0  0  0  0  0  0  0  0
   16.7583   -0.0525   26.0359 C   0  0  0  0  0  0  0  0  0  0  0  0
   16.1510   -0.3134   27.2714 C   0  0  0  0  0  0  0  0  0  0  0  0
   16.8473   -1.1874   25.0980 C   0  0  0  0  0  0  0  0  0  0  0  0
   17.9003    1.5155   24.4552 C   0  0  0  0  0  0  0  0  0  0  0  0
   15.6840   -1.5786   27.5580 O   0  0  0  0  0  0  0  0  0  0  0  0
   17.7725    0.6467   23.5612 O   0  0  0  0  0  0  0  0  0  0  0  0
   21.3306    3.7707   21.9926 C   0  0  0  0  0  0  0  0  0  0  0  0
   18.5899    2.7201   24.3648 N   0  0  0  0  0  0  0  0  0  0  0  0
   20.7991    4.8210   21.5625 O   0  0  0  0  0  0  0  0  0  0  0  0
   20.7836    3.1404   23.2874 C   0  0  2  0  0  0  0  0  0  0  0  0
   17.3475    4.6682   22.5043 C   0  0  0  0  0  0  0  0  0  0  0  0
   18.7656    4.6235   22.8494 C   0  0  0  0  0  0  0  0  0  0  0  0
   14.6690    4.5788   21.6942 C   0  0  0  0  0  0  0  0  0  0  0  0
   19.3109    3.2832   23.2501 C   0  0  2  0  0  0  0  0  0  0  0  0
   21.4163    3.9275   24.2616 O   0  0  0  0  0  0  0  0  0  0  0  0
   16.4470    5.6000   23.0000 C   0  0  0  0  0  0  0  0  0  0  0  0
   16.8978    3.6883   21.5978 C   0  0  0  0  0  0  0  0  0  0  0  0
   15.1259    5.5485   22.5947 C   0  0  0  0  0  0  0  0  0  0  0  0
   15.5759    3.6632   21.2134 C   0  0  0  0  0  0  0  0  0  0  0  0
   21.9567    3.4808   18.9054 C   0  0  0  0  0  0  0  0  0  0  0  0
   22.4194    3.1618   21.3176 N   0  0  0  0  0  0  0  0  0  0  0  0
   21.7181    2.8506   17.8243 O   0  0  0  0  0  0  0  0  0  0  0  0
   22.6239    2.7432   19.9679 C   0  0  1  0  0  0  0  0  0  0  0  0
   22.5433    1.2548   19.9471 C   0  0  2  0  0  0  0  0  0  0  0  0
   23.6483    2.7052   22.0114 C   0  0  0  0  0  0  0  0  0  0  0  0
   23.0905    0.6914   18.6626 C   0  0  0  0  0  0  0  0  0  0  0  0
   21.2673    0.6399   20.3785 C   0  0  0  0  0  0  0  0  0  0  0  0
   23.7473    0.9846   21.3208 S   0  0  0  0  0  0  0  0  0  0  0  0
   21.5495    4.8196   18.9631 N   0  0  0  0  0  0  0  0  0  0  0  0
   20.6020    5.5416   18.1835 C   0  0  0  0  0  0  0  0  0  0  0  0
   20.7899    7.0040   18.2561 C   0  0  0  0  0  0  0  0  0  0  0  0
   20.2272    7.9323   17.4431 C   0  0  0  0  0  0  0  0  0  0  0  0
   20.4077    9.2929   17.6943 C   0  0  0  0  0  0  0  0  0  0  0  0
   21.1485    9.7513   18.7507 C   0  0  0  0  0  0  0  0  0  0  0  0
   21.7250    8.8179   19.5782 C   0  0  0  0  0  0  0  0  0  0  0  0
   21.5440    7.4709   19.3288 C   0  0  0  0  0  0  0  0  0  0  0  0
   19.4604    7.6107   16.2051 C   0  0  0  0  0  0  0  0  0  0  0  0
  1  2  2  0
  2  3  1  0
  3  4  2  0
  4  5  1  0
  1  6  1  0
  5  6  2  0
  5  7  1  0
  4  8  1  0
  6  9  1  0
  8 10  2  0
  8 12  1  0
 11 13  2  0
 11 14  1  0
 15 16  1  0
 12 18  1  0
 18 16  1  1
 14 18  1  0
 14 19  1  1
 15 20  2  0
 15 21  1  0
 20 22  1  0
 17 22  2  0
 17 23  1  0
 21 23  2  0
 11 25  1  0
 24 26  2  0
 25 27  1  0
 27 24  1  6
 27 28  1  0
 25 29  1  0
 28 30  1  6
 28 31  1  0
 29 32  1  0
 28 32  1  0
 24 33  1  0
 33 34  1  0
 34 35  1  0
 35 36  2  0
 36 37  1  0
 37 38  2  0
 38 39  1  0
 35 40  1  0
 39 40  2  0
 36 41  1  0
M  END
$$$$
