1KZK_JE2_A_701
     RDKit          3D

 41 44  0  0  0  0  0  0  0  0999 V2000
   18.6176   -7.3790   11.6958 C   0  0  0  0  0  0  0  0  0  0  0  0
   19.7625   -6.6571   11.8678 C   0  0  0  0  0  0  0  0  0  0  0  0
   19.8636   -5.7544   12.9152 C   0  0  0  0  0  0  0  0  0  0  0  0
   18.8390   -5.5390   13.8196 C   0  0  0  0  0  0  0  0  0  0  0  0
   17.6857   -6.2740   13.6384 C   0  0  0  0  0  0  0  0  0  0  0  0
   17.5826   -7.1866   12.5801 C   0  0  0  0  0  0  0  0  0  0  0  0
   16.5108   -6.1626   14.5231 C   0  0  0  0  0  0  0  0  0  0  0  0
   18.9749   -4.5487   14.9123 C   0  0  0  0  0  0  0  0  0  0  0  0
   16.4243   -7.9138   12.4057 O   0  0  0  0  0  0  0  0  0  0  0  0
   18.0902   -4.5997   15.7985 O   0  0  0  0  0  0  0  0  0  0  0  0
   20.0039   -0.6481   17.0918 C   0  0  0  0  0  0  0  0  0  0  0  0
   20.0559   -3.6754   14.8525 N   0  0  0  0  0  0  0  0  0  0  0  0
   20.9658   -1.0685   17.7765 O   0  0  0  0  0  0  0  0  0  0  0  0
   19.5317   -1.4834   15.8866 C   0  0  2  0  0  0  0  0  0  0  0  0
   22.8213   -3.4788   15.7928 C   0  0  0  0  0  0  0  0  0  0  0  0
   21.9180   -2.3368   15.6836 C   0  0  0  0  0  0  0  0  0  0  0  0
   24.5110   -5.6677   16.2314 C   0  0  0  0  0  0  0  0  0  0  0  0
   20.4500   -2.6387   15.7740 C   0  0  2  0  0  0  0  0  0  0  0  0
   19.6473   -0.5492   14.8461 O   0  0  0  0  0  0  0  0  0  0  0  0
   23.5459   -4.0115   14.7364 C   0  0  0  0  0  0  0  0  0  0  0  0
   22.9480   -4.0501   17.0741 C   0  0  0  0  0  0  0  0  0  0  0  0
   24.3780   -5.0928   14.9618 C   0  0  0  0  0  0  0  0  0  0  0  0
   23.7848   -5.1264   17.2666 C   0  0  0  0  0  0  0  0  0  0  0  0
   20.3954    1.3572   19.5067 C   0  0  0  0  0  0  0  0  0  0  0  0
   19.3531    0.5737   17.4010 N   0  0  0  0  0  0  0  0  0  0  0  0
   20.1903    0.8815   20.6707 O   0  0  0  0  0  0  0  0  0  0  0  0
   19.2678    1.3646   18.5866 C   0  0  1  0  0  0  0  0  0  0  0  0
   17.9006    1.1752   19.1500 C   0  0  2  0  0  0  0  0  0  0  0  0
   18.4516    1.2728   16.4532 C   0  0  0  0  0  0  0  0  0  0  0  0
   17.5813    2.2213   20.1846 C   0  0  0  0  0  0  0  0  0  0  0  0
   17.5156   -0.1989   19.5449 C   0  0  0  0  0  0  0  0  0  0  0  0
   17.0006    1.5419   17.5799 S   0  0  0  0  0  0  0  0  0  0  0  0
   21.6871    1.8221   19.2294 N   0  0  0  0  0  0  0  0  0  0  0  0
   22.8755    1.8000   20.0131 C   0  0  0  0  0  0  0  0  0  0  0  0
   24.0814    1.4819   19.2233 C   0  0  0  0  0  0  0  0  0  0  0  0
   25.3691    1.5936   19.6341 C   0  0  0  0  0  0  0  0  0  0  0  0
   26.4112    1.1538   18.8172 C   0  0  0  0  0  0  0  0  0  0  0  0
   26.1925    0.6009   17.5838 C   0  0  0  0  0  0  0  0  0  0  0  0
   24.8910    0.4863   17.1579 C   0  0  0  0  0  0  0  0  0  0  0  0
   23.8601    0.9209   17.9687 C   0  0  0  0  0  0  0  0  0  0  0  0
   25.7910    2.2437   20.9082 C   0  0  0  0  0  0  0  0  0  0  0  0
  1  2  2  0
  2  3  1  0
  3  4  2  0
  4  5  1  0
  1  6  1  0
  5  6  2  0
  5  7  1  0
  4  8  1  0
  6  9  1  0
  8 10  2  0
  8 12  1  0
 11 13  2  0
 11 14  1  0
 15 16  1  0
 12 18  1  0
 18 16  1  6
 14 18  1  0
 14 19  1  6
 15 20  2  0
 15 21  1  0
 20 22  1  0
 17 22  2  0
 17 23  1  0
 21 23  2  0
 11 25  1  0
 24 26  2  0
 25 27  1  0
 27 24  1  1
 27 28  1  0
 25 29  1  0
 28 30  1  1
 28 31  1  0
 29 32  1  0
 28 32  1  0
 24 33  1  0
 33 34  1  0
 34 35  1  0
 35 36  2  0
 36 37  1  0
 37 38  2  0
 38 39  1  0
 35 40  1  0
 39 40  2  0
 36 41  1  0
M  END
$$$$
