1KZK_JE2_A_701
     RDKit          3D

 41 44  0  0  0  0  0  0  0  0999 V2000
   32.5776    8.7273   30.1223 C   0  0  0  0  0  0  0  0  0  0  0  0
   33.0984    8.4282   28.8971 C   0  0  0  0  0  0  0  0  0  0  0  0
   32.9366    9.3100   27.8396 C   0  0  0  0  0  0  0  0  0  0  0  0
   32.2567   10.5088   27.9615 C   0  0  0  0  0  0  0  0  0  0  0  0
   31.7343   10.8031   29.2040 C   0  0  0  0  0  0  0  0  0  0  0  0
   31.8974    9.9126   30.2734 C   0  0  0  0  0  0  0  0  0  0  0  0
   30.9920   12.0444   29.4935 C   0  0  0  0  0  0  0  0  0  0  0  0
   32.0836   11.4146   26.8028 C   0  0  0  0  0  0  0  0  0  0  0  0
   31.3685   10.2146   31.5104 O   0  0  0  0  0  0  0  0  0  0  0  0
   31.6491   12.5585   27.0737 O   0  0  0  0  0  0  0  0  0  0  0  0
   31.1916   12.6871   22.4488 C   0  0  0  0  0  0  0  0  0  0  0  0
   32.4190   10.9178   25.5476 N   0  0  0  0  0  0  0  0  0  0  0  0
   32.3176   13.1575   22.1633 O   0  0  0  0  0  0  0  0  0  0  0  0
   31.0091   11.9708   23.8003 C   0  0  2  0  0  0  0  0  0  0  0  0
   34.6548   10.7726   23.6108 C   0  0  0  0  0  0  0  0  0  0  0  0
   33.2442   10.8900   23.2524 C   0  0  0  0  0  0  0  0  0  0  0  0
   37.3164   10.3259   24.3559 C   0  0  0  0  0  0  0  0  0  0  0  0
   32.3556   11.5619   24.2590 C   0  0  2  0  0  0  0  0  0  0  0  0
   30.1749   10.9042   23.4326 O   0  0  0  0  0  0  0  0  0  0  0  0
   35.5629   11.8210   23.5818 C   0  0  0  0  0  0  0  0  0  0  0  0
   35.0883    9.4952   24.0162 C   0  0  0  0  0  0  0  0  0  0  0  0
   36.8756   11.5916   23.9513 C   0  0  0  0  0  0  0  0  0  0  0  0
   36.4021    9.2985   24.3782 C   0  0  0  0  0  0  0  0  0  0  0  0
   30.9699   14.0272   19.5920 C   0  0  0  0  0  0  0  0  0  0  0  0
   30.0952   12.7969   21.5555 N   0  0  0  0  0  0  0  0  0  0  0  0
   32.0471   14.3337   20.1993 O   0  0  0  0  0  0  0  0  0  0  0  0
   29.8413   13.6151   20.4133 C   0  0  1  0  0  0  0  0  0  0  0  0
   28.8534   14.6542   20.8215 C   0  0  2  0  0  0  0  0  0  0  0  0
   28.8224   12.0585   21.7420 C   0  0  0  0  0  0  0  0  0  0  0  0
   28.2497   15.3405   19.6252 C   0  0  0  0  0  0  0  0  0  0  0  0
   29.2526   15.5782   21.9075 C   0  0  0  0  0  0  0  0  0  0  0  0
   27.6369   13.4752   21.5560 S   0  0  0  0  0  0  0  0  0  0  0  0
   30.9821   14.1147   18.1942 N   0  0  0  0  0  0  0  0  0  0  0  0
   32.0188   14.4841   17.2910 C   0  0  0  0  0  0  0  0  0  0  0  0
   32.6229   13.3267   16.6019 C   0  0  0  0  0  0  0  0  0  0  0  0
   33.2684   12.2860   17.1848 C   0  0  0  0  0  0  0  0  0  0  0  0
   33.6971   11.2024   16.4173 C   0  0  0  0  0  0  0  0  0  0  0  0
   33.4948   11.1364   15.0647 C   0  0  0  0  0  0  0  0  0  0  0  0
   32.8442   12.1878   14.4650 C   0  0  0  0  0  0  0  0  0  0  0  0
   32.4190   13.2594   15.2266 C   0  0  0  0  0  0  0  0  0  0  0  0
   33.6432   12.2314   18.6271 C   0  0  0  0  0  0  0  0  0  0  0  0
  1  2  2  0
  2  3  1  0
  3  4  2  0
  4  5  1  0
  1  6  1  0
  5  6  2  0
  5  7  1  0
  4  8  1  0
  6  9  1  0
  8 10  2  0
  8 12  1  0
 11 13  2  0
 11 14  1  0
 15 16  1  0
 12 18  1  0
 18 16  1  6
 14 18  1  0
 14 19  1  6
 15 20  2  0
 15 21  1  0
 20 22  1  0
 17 22  2  0
 17 23  1  0
 21 23  2  0
 11 25  1  0
 24 26  2  0
 25 27  1  0
 27 24  1  1
 27 28  1  0
 25 29  1  0
 28 30  1  6
 28 31  1  0
 29 32  1  0
 28 32  1  0
 24 33  1  0
 33 34  1  0
 34 35  1  0
 35 36  2  0
 36 37  1  0
 37 38  2  0
 38 39  1  0
 35 40  1  0
 39 40  2  0
 36 41  1  0
M  END
$$$$
