1KZK_JE2_A_701
     RDKit          3D

 41 44  0  0  0  0  0  0  0  0999 V2000
   20.4786   -0.3120   15.7808 C   0  0  0  0  0  0  0  0  0  0  0  0
   21.4754   -0.2179   16.7077 C   0  0  0  0  0  0  0  0  0  0  0  0
   21.2989    0.5615   17.8406 C   0  0  0  0  0  0  0  0  0  0  0  0
   20.1363    1.2692   18.0891 C   0  0  0  0  0  0  0  0  0  0  0  0
   19.1338    1.1674   17.1469 C   0  0  0  0  0  0  0  0  0  0  0  0
   19.3112    0.3799   16.0015 C   0  0  0  0  0  0  0  0  0  0  0  0
   17.8349    1.8547   17.2735 C   0  0  0  0  0  0  0  0  0  0  0  0
   19.9933    2.1105   19.2993 C   0  0  0  0  0  0  0  0  0  0  0  0
   18.3043    0.2875   15.0642 O   0  0  0  0  0  0  0  0  0  0  0  0
   18.8421    2.5582   19.5111 O   0  0  0  0  0  0  0  0  0  0  0  0
   21.5731    5.2766   22.3700 C   0  0  0  0  0  0  0  0  0  0  0  0
   21.1307    2.3151   20.0734 N   0  0  0  0  0  0  0  0  0  0  0  0
   21.3516    4.6249   23.4173 O   0  0  0  0  0  0  0  0  0  0  0  0
   21.3075    4.6047   21.0094 C   0  0  2  0  0  0  0  0  0  0  0  0
   22.1584    1.2410   22.6520 C   0  0  0  0  0  0  0  0  0  0  0  0
   22.3673    2.5986   22.1568 C   0  0  0  0  0  0  0  0  0  0  0  0
   21.9589   -1.4202   23.4989 C   0  0  0  0  0  0  0  0  0  0  0  0
   21.3095    3.1428   21.2407 C   0  0  2  0  0  0  0  0  0  0  0  0
   22.3960    5.0727   20.2578 O   0  0  0  0  0  0  0  0  0  0  0  0
   21.0295    0.8204   23.3401 C   0  0  0  0  0  0  0  0  0  0  0  0
   23.1901    0.3186   22.3896 C   0  0  0  0  0  0  0  0  0  0  0  0
   20.9391   -0.4957   23.7548 C   0  0  0  0  0  0  0  0  0  0  0  0
   23.0707   -0.9853   22.8157 C   0  0  0  0  0  0  0  0  0  0  0  0
   22.0343    7.2350   24.8110 C   0  0  0  0  0  0  0  0  0  0  0  0
   22.0644    6.6064   22.4155 N   0  0  0  0  0  0  0  0  0  0  0  0
   21.1639    6.3791   25.1755 O   0  0  0  0  0  0  0  0  0  0  0  0
   22.0279    7.6300   23.4102 C   0  0  1  0  0  0  0  0  0  0  0  0
   21.0250    8.6416   22.9705 C   0  0  2  0  0  0  0  0  0  0  0  0
   22.6890    7.2787   21.2501 C   0  0  0  0  0  0  0  0  0  0  0  0
   21.1584    9.9238   23.7484 C   0  0  0  0  0  0  0  0  0  0  0  0
   19.6276    8.1814   22.8038 C   0  0  0  0  0  0  0  0  0  0  0  0
   21.7129    8.8579   21.2706 S   0  0  0  0  0  0  0  0  0  0  0  0
   22.9119    7.7068   25.7952 N   0  0  0  0  0  0  0  0  0  0  0  0
   23.0342    7.3741   27.1740 C   0  0  0  0  0  0  0  0  0  0  0  0
   24.3244    6.7356   27.5011 C   0  0  0  0  0  0  0  0  0  0  0  0
   24.7623    5.5286   27.0642 C   0  0  0  0  0  0  0  0  0  0  0  0
   26.0533    5.0944   27.3669 C   0  0  0  0  0  0  0  0  0  0  0  0
   26.9253    5.8473   28.1070 C   0  0  0  0  0  0  0  0  0  0  0  0
   26.4893    7.0705   28.5564 C   0  0  0  0  0  0  0  0  0  0  0  0
   25.2110    7.4996   28.2546 C   0  0  0  0  0  0  0  0  0  0  0  0
   23.9205    4.5489   26.3188 C   0  0  0  0  0  0  0  0  0  0  0  0
  1  2  2  0
  2  3  1  0
  3  4  2  0
  4  5  1  0
  1  6  1  0
  5  6  2  0
  5  7  1  0
  4  8  1  0
  6  9  1  0
  8 10  2  0
  8 12  1  0
 11 13  2  0
 11 14  1  0
 15 16  1  0
 12 18  1  0
 18 16  1  6
 14 18  1  0
 14 19  1  6
 15 20  2  0
 15 21  1  0
 20 22  1  0
 17 22  2  0
 17 23  1  0
 21 23  2  0
 11 25  1  0
 24 26  2  0
 25 27  1  0
 27 24  1  1
 27 28  1  0
 25 29  1  0
 28 30  1  1
 28 31  1  0
 29 32  1  0
 28 32  1  0
 24 33  1  0
 33 34  1  0
 34 35  1  0
 35 36  2  0
 36 37  1  0
 37 38  2  0
 38 39  1  0
 35 40  1  0
 39 40  2  0
 36 41  1  0
M  END
$$$$
