7RWO_7WN_A_3001
     RDKit          3D

 35 37  0  0  0  0  0  0  0  0999 V2000
    4.8499    2.6877   -1.6405 N   0  0  0  0  0  0  0  0  0  0  0  0
    3.4922    2.1241   -1.6126 C   0  0  0  0  0  0  0  0  0  0  0  0
    3.4849    0.6451   -1.2741 C   0  0  0  0  0  0  0  0  0  0  0  0
    4.3960    0.2891   -0.1511 C   0  0  0  0  0  0  0  0  0  0  0  0
    4.2250   -0.9867    0.4697 C   0  0  0  0  0  0  0  0  0  0  0  0
    5.0246   -1.3523    1.5313 C   0  0  0  0  0  0  0  0  0  0  0  0
    6.0146   -1.2237    5.3761 C   0  0  0  0  0  0  0  0  0  0  0  0
    7.2197    1.0989    6.1377 C   0  0  0  0  0  0  0  0  0  0  0  0
    7.3575    0.6915    4.8161 C   0  0  0  0  0  0  0  0  0  0  0  0
    6.7383   -0.5077    4.4326 C   0  0  0  0  0  0  0  0  0  0  0  0
    5.9849   -0.5100    1.9780 C   0  0  0  0  0  0  0  0  0  0  0  0
    6.1696    0.7209    1.3815 C   0  0  0  0  0  0  0  0  0  0  0  0
    5.3224    1.1120    0.2961 C   0  0  0  0  0  0  0  0  0  0  0  0
    5.5674    2.5136   -0.3385 C   0  0  0  0  0  0  0  0  0  0  0  0
    6.4197    0.8255    8.3746 C   0  0  0  0  0  0  0  0  0  0  0  0
    6.8526   -0.9072    3.0582 N   0  0  0  0  0  0  0  0  0  0  0  0
    5.9649   -0.7645    6.6052 N   0  0  0  0  0  0  0  0  0  0  0  0
    6.5510    0.3723    6.9927 N   0  0  0  0  0  4  0  0  0  0  0  0
    7.8236    2.2644    6.5561 O   0  0  0  0  0  0  0  0  0  0  0  0
    8.2889    1.6377    3.6358 Cl  0  0  0  0  0  0  0  0  0  0  0  0
    4.7866    3.6841   -1.8488 H   0  0  0  0  0  0  0  0  0  0  0  0
    3.0449    2.2583   -2.5753 H   0  0  0  0  0  0  0  0  0  0  0  0
    2.9431    2.6354   -0.8496 H   0  0  0  0  0  0  0  0  0  0  0  0
    3.7871    0.0974   -2.1422 H   0  0  0  0  0  0  0  0  0  0  0  0
    2.4912    0.3976   -0.9642 H   0  0  0  0  0  0  0  0  0  0  0  0
    3.5013   -1.6355    0.1227 H   0  0  0  0  0  0  0  0  0  0  0  0
    4.8908   -2.2691    1.9857 H   0  0  0  0  0  0  0  0  0  0  0  0
    5.5273   -2.0960    5.1178 H   0  0  0  0  0  0  0  0  0  0  0  0
    6.9128    1.3543    1.7155 H   0  0  0  0  0  0  0  0  0  0  0  0
    5.2261    3.2636    0.3442 H   0  0  0  0  0  0  0  0  0  0  0  0
    6.6161    2.6041   -0.5309 H   0  0  0  0  0  0  0  0  0  0  0  0
    5.8454    0.1139    8.9302 H   0  0  0  0  0  0  0  0  0  0  0  0
    5.9261    1.7746    8.3933 H   0  0  0  0  0  0  0  0  0  0  0  0
    7.3913    0.9199    8.8128 H   0  0  0  0  0  0  0  0  0  0  0  0
    7.5962   -1.5113    2.8314 H   0  0  0  0  0  0  0  0  0  0  0  0
  1  2  1  0
  2  3  1  0
  3  4  1  0
  4  5  4  0
  5  6  4  0
  8  9  4  0
  7 10  4  0
  9 10  4  0
  6 11  4  0
 11 12  4  0
  4 13  4  0
 12 13  4  0
  1 14  1  0
 13 14  1  0
 11 16  1  0
 10 16  1  0
  7 17  4  0
 17 18  4  0
  8 18  4  0
 15 18  1  0
  8 19  2  0
  9 20  1  0
  1 21  1  0
  2 22  1  0
  2 23  1  0
  3 24  1  0
  3 25  1  0
  5 26  1  0
  6 27  1  0
  7 28  1  0
 12 29  1  0
 14 30  1  0
 14 31  1  0
 15 32  1  0
 15 33  1  0
 15 34  1  0
 16 35  1  0
M  CHG  1  18   1
M  END
