7RWO_7WN_A_3001
     RDKit          3D

 35 37  0  0  0  0  0  0  0  0999 V2000
   -2.2332    0.8777   -4.4707 N   0  0  0  0  0  0  0  0  0  0  0  0
   -3.0333   -0.3266   -4.2170 C   0  0  0  0  0  0  0  0  0  0  0  0
   -3.3251   -0.4852   -2.7199 C   0  0  0  0  0  0  0  0  0  0  0  0
   -2.0866   -0.2877   -1.8852 C   0  0  0  0  0  0  0  0  0  0  0  0
   -2.0960   -0.6741   -0.5378 C   0  0  0  0  0  0  0  0  0  0  0  0
   -0.9775   -0.4557    0.2690 C   0  0  0  0  0  0  0  0  0  0  0  0
    1.7812    0.5416    2.9476 C   0  0  0  0  0  0  0  0  0  0  0  0
    1.8978   -2.1976    3.2004 C   0  0  0  0  0  0  0  0  0  0  0  0
    1.6589   -1.6404    1.9373 C   0  0  0  0  0  0  0  0  0  0  0  0
    1.5768   -0.2441    1.8142 C   0  0  0  0  0  0  0  0  0  0  0  0
    0.1740    0.1524   -0.2611 C   0  0  0  0  0  0  0  0  0  0  0  0
    0.1733    0.5644   -1.6014 C   0  0  0  0  0  0  0  0  0  0  0  0
   -0.9527    0.3624   -2.4140 C   0  0  0  0  0  0  0  0  0  0  0  0
   -0.8963    0.7499   -3.8739 C   0  0  0  0  0  0  0  0  0  0  0  0
    2.3100   -1.9356    5.6138 C   0  0  0  0  0  0  0  0  0  0  0  0
    1.3387    0.3920    0.5497 N   0  0  0  0  0  0  0  0  0  0  0  0
    2.0085   -0.0501    4.1471 N   0  0  0  0  0  0  0  0  0  0  0  0
    2.0591   -1.3779    4.2848 N   0  0  0  0  0  0  0  0  0  0  0  0
    1.9693   -3.4511    3.3302 O   0  0  0  0  0  0  0  0  0  0  0  0
    1.5365   -2.6902    0.5250 Cl  0  0  0  0  0  0  0  0  0  0  0  0
   -2.7161    1.7061   -4.0482 H   0  0  0  0  0  0  0  0  0  0  0  0
   -3.9937   -0.2503   -4.7704 H   0  0  0  0  0  0  0  0  0  0  0  0
   -2.5001   -1.2263   -4.5979 H   0  0  0  0  0  0  0  0  0  0  0  0
   -4.0828    0.2681   -2.4134 H   0  0  0  0  0  0  0  0  0  0  0  0
   -3.7483   -1.4972   -2.5394 H   0  0  0  0  0  0  0  0  0  0  0  0
   -2.9746   -1.1413   -0.1100 H   0  0  0  0  0  0  0  0  0  0  0  0
   -1.0179   -0.7548    1.3080 H   0  0  0  0  0  0  0  0  0  0  0  0
    1.7451    1.6212    2.8812 H   0  0  0  0  0  0  0  0  0  0  0  0
    1.0570    1.0349   -2.0157 H   0  0  0  0  0  0  0  0  0  0  0  0
   -0.3146   -0.0168   -4.4301 H   0  0  0  0  0  0  0  0  0  0  0  0
   -0.3617    1.7187   -3.9839 H   0  0  0  0  0  0  0  0  0  0  0  0
    2.3844   -1.1262    6.3720 H   0  0  0  0  0  0  0  0  0  0  0  0
    1.4777   -2.6116    5.9042 H   0  0  0  0  0  0  0  0  0  0  0  0
    3.2645   -2.5036    5.6106 H   0  0  0  0  0  0  0  0  0  0  0  0
    1.9946    1.1533    0.2617 H   0  0  0  0  0  0  0  0  0  0  0  0
  1  2  1  0
  2  3  1  0
  3  4  1  0
  4  5  1  0
  5  6  2  0
  8  9  1  0
  7 10  1  0
  9 10  2  0
  6 11  1  0
 11 12  2  0
  4 13  2  0
 12 13  1  0
  1 14  1  0
 13 14  1  0
 11 16  1  0
 10 16  1  0
  7 17  2  0
 17 18  1  0
  8 18  1  0
 15 18  1  0
  8 19  2  0
  9 20  1  0
  1 21  1  0
  2 22  1  0
  2 23  1  0
  3 24  1  0
  3 25  1  0
  5 26  1  0
  6 27  1  0
  7 28  1  0
 12 29  1  0
 14 30  1  0
 14 31  1  0
 15 32  1  0
 15 33  1  0
 15 34  1  0
 16 35  1  0
M  END
