7RWO_7WN_A_3001
     RDKit          3D

 20 22  0  0  0  0  0  0  0  0999 V2000
    3.8980    2.3420   -3.1030 N   0  0  0  0  0  0  0  0  0  0  0  0
    3.8320    1.0360   -3.7750 C   0  0  0  0  0  0  0  0  0  0  0  0
    5.0460    0.1730   -3.4860 C   0  0  0  0  0  0  0  0  0  0  0  0
    5.4550    0.1850   -2.0540 C   0  0  0  0  0  0  0  0  0  0  0  0
    6.3540   -0.8320   -1.6070 C   0  0  0  0  0  0  0  0  0  0  0  0
    6.7410   -0.8810   -0.2850 C   0  0  0  0  0  0  0  0  0  0  0  0
    5.5460   -2.0400    2.6970 C   0  0  0  0  0  0  0  0  0  0  0  0
    6.3330   -1.5840    5.2660 C   0  0  0  0  0  0  0  0  0  0  0  0
    6.7370   -0.6840    4.2870 C   0  0  0  0  0  0  0  0  0  0  0  0
    6.3320   -0.9280    2.9660 C   0  0  0  0  0  0  0  0  0  0  0  0
    6.2830    0.0440    0.5900 C   0  0  0  0  0  0  0  0  0  0  0  0
    5.4230    1.0390    0.1710 C   0  0  0  0  0  0  0  0  0  0  0  0
    5.0000    1.0750   -1.1960 C   0  0  0  0  0  0  0  0  0  0  0  0
    4.0240    2.2140   -1.6170 C   0  0  0  0  0  0  0  0  0  0  0  0
    5.2040   -3.5590    6.0030 C   0  0  0  0  0  0  0  0  0  0  0  0
    6.7210    0.0230    1.9630 N   0  0  0  0  0  0  0  0  0  0  0  0
    5.2380   -2.8420    3.6900 N   0  0  0  0  0  0  0  0  0  0  0  0
    5.6170   -2.6310    4.9540 N   0  0  0  0  0  0  0  0  0  0  0  0
    6.7210   -1.3860    6.5730 O   0  0  0  0  0  0  0  0  0  0  0  0
    7.7400    0.7310    4.6710 Cl  0  0  0  0  0  0  0  0  0  0  0  0
  1  2  1  0
  2  3  1  0
  3  4  1  0
  4  5  1  0
  5  6  2  0
  8  9  1  0
  7 10  1  0
  9 10  2  0
  6 11  1  0
 11 12  2  0
  4 13  2  0
 12 13  1  0
  1 14  1  0
 13 14  1  0
 11 16  1  0
 10 16  1  0
  7 17  2  0
 17 18  1  0
  8 18  1  0
 15 18  1  0
  8 19  2  0
  9 20  1  0
M  END
$$$$
