7WJB_BGC_A_802
     RDKit          3D

 12 12  0  0  0  0  0  0  0  0999 V2000
   46.6093   14.5984   34.8837 C   0  0  2  0  0  0  0  0  0  0  0  0
   47.9871   14.3303   35.4101 C   0  0  2  0  0  0  0  0  0  0  0  0
   48.8574   14.0386   34.2118 C   0  0  1  0  0  0  0  0  0  0  0  0
   48.2979   13.0015   33.3149 C   0  0  1  0  0  0  0  0  0  0  0  0
   48.9047   11.6467   33.6309 C   0  0  0  0  0  0  0  0  0  0  0  0
   46.1201   13.4797   34.0370 C   0  0  2  0  0  0  0  0  0  0  0  0
   45.5617   12.4603   34.8286 O   0  0  0  0  0  0  0  0  0  0  0  0
   46.5518   15.8028   34.1962 O   0  0  0  0  0  0  0  0  0  0  0  0
   47.9849   13.1812   36.1847 O   0  0  0  0  0  0  0  0  0  0  0  0
   49.2249   15.1951   33.5172 O   0  0  0  0  0  0  0  0  0  0  0  0
   46.9647   12.9216   33.1464 O   0  0  0  0  0  0  0  0  0  0  0  0
   48.9909   10.8241   32.5037 O   0  0  0  0  0  0  0  0  0  0  0  0
  1  2  1  0
  2  3  1  0
  3  4  1  0
  4  5  1  1
  1  6  1  0
  6  7  1  1
  1  8  1  6
  2  9  1  1
  3 10  1  6
  4 11  1  0
  6 11  1  0
  5 12  1  0
M  END
$$$$
