
     RDKit          3D

 24 23  0  0  0  0  0  0  0  0999 V2000
   36.0003  -30.5007    0.4807 C   0  0  0  0  0  0  0  0  0  0  0  0
   37.0154  -31.1609   -0.2436 O   0  0  0  0  0  0  0  0  0  0  0  0
   34.6976  -31.0515   -0.0029 C   0  0  0  0  0  0  0  0  0  0  0  0
   33.9327  -31.9707    0.6255 C   0  0  0  0  0  0  0  0  0  0  0  0
   34.3089  -32.5817    1.9564 C   0  0  0  0  0  0  0  0  0  0  0  0
   32.6184  -32.5085    0.0775 C   0  0  0  0  0  0  0  0  0  0  0  0
   32.1871  -32.1580   -1.3568 C   0  0  0  0  0  0  0  0  0  0  0  0
   30.7849  -32.5668   -1.7311 C   0  0  0  0  0  0  0  0  0  0  0  0
   30.1593  -32.3964   -2.9131 C   0  0  0  0  0  0  0  0  0  0  0  0
   30.8021  -31.7253   -4.1096 C   0  0  0  0  0  0  0  0  0  0  0  0
   28.7373  -32.8685   -3.1975 C   0  0  0  0  0  0  0  0  0  0  0  0
   28.5283  -34.3707   -3.4580 C   0  0  0  0  0  0  0  0  0  0  0  0
   27.1970  -34.6402   -4.1126 C   0  0  0  0  0  0  0  0  0  0  0  0
   26.6183  -35.8310   -4.3643 C   0  0  0  0  0  0  0  0  0  0  0  0
   27.2137  -37.1758   -4.0496 C   0  0  0  0  0  0  0  0  0  0  0  0
   25.2664  -35.9010   -5.0262 C   0  0  0  0  0  0  0  0  0  0  0  0
   38.1975  -30.2502   -0.8263 P   0  0  1  0  0  5  0  0  0  0  0  0
   39.0660  -29.5874    0.1852 O   0  0  0  0  0  0  0  0  0  0  0  0
   39.0339  -31.2617   -1.7470 O   0  0  0  0  0  0  0  0  0  0  0  0
   37.4810  -29.3116   -1.8866 O   0  0  0  0  0  0  0  0  0  0  0  0
   38.0556  -27.8582   -2.1772 P   0  0  0  0  0  5  0  0  0  0  0  0
   39.4578  -27.5876   -1.7793 O   0  0  0  0  0  0  0  0  0  0  0  0
   36.9778  -26.8592   -1.5515 O   0  0  0  0  0  0  0  0  0  0  0  0
   37.8035  -27.6520   -3.7427 O   0  0  0  0  0  0  0  0  0  0  0  0
  1  2  1  0
  1  3  1  0
  3  4  2  0
  4  5  1  0
  4  6  1  0
  6  7  1  0
  7  8  1  0
  8  9  2  0
  9 10  1  0
  9 11  1  0
 11 12  1  0
 12 13  1  0
 13 14  2  3
 14 15  1  0
 14 16  1  0
 17  2  1  0
 17 18  2  0
 17 19  1  6
 17 20  1  0
 20 21  1  0
 21 22  2  0
 21 23  1  0
 21 24  1  0
M  END
