7D0P_1VU_A_701
     RDKit          3D

 52 54  0  0  0  0  0  0  0  0999 V2000
  195.6090   -8.9245   93.2551 O   0  0  0  0  0  0  0  0  0  0  0  0
  196.9062   -8.2689   93.6614 P   0  0  2  0  0  0  0  0  0  0  0  0
  197.1272   -8.3763   95.1441 O   0  0  0  0  0  0  0  0  0  0  0  0
  196.9023   -6.8055   93.3103 O   0  0  0  0  0  0  0  0  0  0  0  0
  198.0922   -9.0861   92.8671 O   0  0  0  0  0  0  0  0  0  0  0  0
  199.3019   -8.4717   92.6614 C   0  0  1  0  0  0  0  0  0  0  0  0
  200.4407   -9.2502   93.2962 C   0  0  1  0  0  0  0  0  0  0  0  0
  200.0607   -9.7230   94.6497 O   0  0  0  0  0  0  0  0  0  0  0  0
  200.6171  -10.2756   92.4153 C   0  0  2  0  0  0  0  0  0  0  0  0
  201.9195  -10.8293   92.3794 N   0  0  0  0  0  0  0  0  0  0  0  0
  202.8149  -10.7426   93.3613 C   0  0  0  0  0  0  0  0  0  0  0  0
  202.7824  -10.1368   94.5711 N   0  0  0  0  0  0  0  0  0  0  0  0
  203.8830  -10.2058   95.3859 C   0  0  0  0  0  0  0  0  0  0  0  0
  205.0033  -10.8815   94.9944 N   0  0  0  0  0  0  0  0  0  0  0  0
  205.0212  -11.4715   93.7886 C   0  0  0  0  0  0  0  0  0  0  0  0
  206.3387  -12.1244   93.5936 N   0  0  0  0  0  0  0  0  0  0  0  0
  203.9116  -11.4097   92.9672 C   0  0  0  0  0  0  0  0  0  0  0  0
  203.6973  -11.9160   91.7465 N   0  0  0  0  0  0  0  0  0  0  0  0
  202.4544  -11.5639   91.3859 C   0  0  0  0  0  0  0  0  0  0  0  0
  200.3820   -9.6355   90.9778 O   0  0  0  0  0  0  0  0  0  0  0  0
  199.6103   -8.5784   91.1197 C   0  0  2  0  0  0  0  0  0  0  0  0
  200.3839   -7.3713   90.6023 C   0  0  0  0  0  0  0  0  0  0  0  0
  201.7684   -7.6740   90.6277 O   0  0  0  0  0  0  0  0  0  0  0  0
  202.7634   -6.6170   89.8401 P   0  0  1  0  0  0  0  0  0  0  0  0
  202.2379   -5.2105   89.8990 O   0  0  0  0  0  0  0  0  0  0  0  0
  204.1585   -6.8185   90.3870 O   0  0  0  0  0  0  0  0  0  0  0  0
  202.6230   -7.1044   88.2984 O   0  0  0  0  0  0  0  0  0  0  0  0
  203.7408   -7.9014   87.3744 P   0  0  1  0  0  0  0  0  0  0  0  0
  204.5247   -6.8725   86.5956 O   0  0  0  0  0  0  0  0  0  0  0  0
  204.6210   -8.7654   88.2190 O   0  0  0  0  0  0  0  0  0  0  0  0
  202.7484   -8.7208   86.3760 O   0  0  0  0  0  0  0  0  0  0  0  0
  201.6531   -9.4733   86.8118 C   0  0  0  0  0  0  0  0  0  0  0  0
  201.2563  -10.3864   85.6433 C   0  0  1  0  0  0  0  0  0  0  0  0
  199.7385  -10.4632   85.4952 C   0  0  0  0  0  0  0  0  0  0  0  0
  201.8585   -9.7722   84.3524 C   0  0  0  0  0  0  0  0  0  0  0  0
  201.8694  -11.7374   86.0245 C   0  0  1  0  0  0  0  0  0  0  0  0
  201.2301  -12.2833   87.1639 O   0  0  0  0  0  0  0  0  0  0  0  0
  201.8142  -12.7778   84.8942 C   0  0  0  0  0  0  0  0  0  0  0  0
  202.6726  -12.8638   84.0643 O   0  0  0  0  0  0  0  0  0  0  0  0
  200.6691  -13.6934   84.8952 N   0  0  0  0  0  0  0  0  0  0  0  0
  200.3469  -14.5628   83.7363 C   0  0  0  0  0  0  0  0  0  0  0  0
  199.7025  -13.7735   82.6005 C   0  0  0  0  0  0  0  0  0  0  0  0
  199.1806  -12.3882   83.0975 C   0  0  0  0  0  0  0  0  0  0  0  0
  198.3217  -12.2883   83.9155 O   0  0  0  0  0  0  0  0  0  0  0  0
  199.7801  -11.2235   82.4804 N   0  0  0  0  0  0  0  0  0  0  0  0
  199.4374   -9.8969   82.8869 C   0  0  0  0  0  0  0  0  0  0  0  0
  199.0509   -9.1533   81.5956 C   0  0  0  0  0  0  0  0  0  0  0  0
  199.8521   -7.5088   81.6044 S   0  0  0  0  0  0  0  0  0  0  0  0
  201.3042   -7.8113   82.6644 C   0  0  0  0  0  0  0  0  0  0  0  0
  201.3451   -8.7961   83.3349 O   0  0  0  0  0  0  0  0  0  0  0  0
  202.4442   -6.7958   82.6464 C   0  0  0  0  0  0  0  0  0  0  0  0
  201.9427   -5.4294   83.2039 C   0  0  0  0  0  0  0  0  0  0  0  0
  1  2  2  0
  2  3  1  1
  2  4  1  0
  2  5  1  0
  6  5  1  6
  6  7  1  0
  7  8  1  1
  7  9  1  0
  9 10  1  6
 10 11  1  0
 11 12  2  0
 12 13  1  0
 13 14  2  0
 14 15  1  0
 15 16  1  0
 11 17  1  0
 15 17  2  0
 17 18  1  0
 18 19  2  0
 10 19  1  0
  9 20  1  0
  6 21  1  0
 20 21  1  0
 21 22  1  1
 22 23  1  0
 23 24  1  0
 24 25  1  6
 24 26  2  0
 24 27  1  0
 27 28  1  0
 28 29  2  0
 28 30  1  1
 28 31  1  0
 31 32  1  0
 32 33  1  0
 33 34  1  6
 33 35  1  0
 33 36  1  0
 36 37  1  1
 36 38  1  0
 38 39  2  0
 38 40  1  0
 40 41  1  0
 41 42  1  0
 42 43  1  0
 43 44  2  0
 43 45  1  0
 45 46  1  0
 46 47  1  0
 47 48  1  0
 48 49  1  0
 49 50  2  0
 49 51  1  0
 51 52  1  0
M  END
