7TSF_H4B_A_802
     RDKit          3D

 32 33  0  0  0  0  0  0  0  0999 V2000
   -1.3770   -1.2446   -0.3181 N   0  0  0  0  0  0  0  0  0  0  0  0
   -0.7005   -0.7044    0.7305 C   0  0  0  0  0  0  0  0  0  0  0  0
   -0.7280   -1.3555    2.0006 N   0  0  0  0  0  0  0  0  0  0  0  0
    0.0044    0.4510    0.5643 N   0  0  0  0  0  4  0  0  0  0  0  0
    0.0328    1.0870   -0.6398 C   0  0  0  0  0  0  0  0  0  0  0  0
    0.6836    2.1590   -0.7674 O   0  0  0  0  0  0  0  0  0  0  0  0
   -0.6700    0.5489   -1.7256 C   0  0  0  0  0  0  0  0  0  0  0  0
   -1.3670   -0.6478   -1.5375 C   0  0  0  0  0  0  0  0  0  0  0  0
   -0.7010    1.1870   -3.0132 N   0  0  0  0  0  0  0  0  0  0  0  0
   -2.0592   -1.2389   -2.6423 N   0  0  0  0  0  0  0  0  0  0  0  0
   -1.7083    0.7824   -4.0082 C   0  0  2  0  0  0  0  0  0  0  0  0
   -1.8120   -0.7626   -4.0034 C   0  0  0  0  0  0  0  0  0  0  0  0
   -1.3860    1.3879   -5.4114 C   0  0  1  0  0  0  0  0  0  0  0  0
   -2.3583    2.3357   -5.7816 O   0  0  0  0  0  0  0  0  0  0  0  0
    0.0398    1.9896   -5.5183 C   0  0  2  0  0  0  0  0  0  0  0  0
    0.8878    1.3640   -6.6323 C   0  0  0  0  0  0  0  0  0  0  0  0
    0.6953    1.8227   -4.2866 O   0  0  0  0  0  0  0  0  0  0  0  0
   -0.2131   -0.9563    2.8165 H   0  0  0  0  0  0  0  0  0  0  0  0
   -1.2662   -2.2413    2.1269 H   0  0  0  0  0  0  0  0  0  0  0  0
    0.5266    0.8586    1.3730 H   0  0  0  0  0  0  0  0  0  0  0  0
   -0.0313    1.9640   -3.2126 H   0  0  0  0  0  0  0  0  0  0  0  0
   -2.6922   -2.0550   -2.4854 H   0  0  0  0  0  0  0  0  0  0  0  0
   -2.6871    1.1835   -3.6627 H   0  0  0  0  0  0  0  0  0  0  0  0
   -0.8557   -1.2056   -4.3555 H   0  0  0  0  0  0  0  0  0  0  0  0
   -2.6205   -1.1230   -4.6677 H   0  0  0  0  0  0  0  0  0  0  0  0
   -1.4011    0.5522   -6.1506 H   0  0  0  0  0  0  0  0  0  0  0  0
   -2.3536    2.3919   -6.7729 H   0  0  0  0  0  0  0  0  0  0  0  0
   -0.0625    3.0805   -5.7298 H   0  0  0  0  0  0  0  0  0  0  0  0
    1.9437    1.6942   -6.5337 H   0  0  0  0  0  0  0  0  0  0  0  0
    0.5319    1.7057   -7.6255 H   0  0  0  0  0  0  0  0  0  0  0  0
    0.8615    0.2552   -6.5783 H   0  0  0  0  0  0  0  0  0  0  0  0
    1.4265    2.4939   -4.2522 H   0  0  0  0  0  0  0  0  0  0  0  0
  1  2  4  0
  2  3  1  0
  2  4  4  0
  4  5  4  0
  5  6  2  0
  5  7  4  0
  1  8  4  0
  7  8  4  0
  7  9  1  0
  8 10  1  0
  9 11  1  0
 10 12  1  0
 11 12  1  0
 11 13  1  0
 13 14  1  0
 13 15  1  0
 15 16  1  0
 15 17  1  0
  3 18  1  0
  3 19  1  0
  4 20  1  0
  9 21  1  0
 10 22  1  0
 11 23  1  1
 12 24  1  0
 12 25  1  0
 13 26  1  6
 14 27  1  0
 15 28  1  6
 16 29  1  0
 16 30  1  0
 16 31  1  0
 17 32  1  0
M  CHG  1   4   1
M  END
