6Z4N_Q7B_BBB_402
     RDKit          3D

 20 22  0  0  0  0  0  0  0  0999 V2000
   21.9280   13.1320   62.3530 C   0  0  0  0  0  0  0  0  0  0  0  0
   20.6630   13.6860   62.2470 C   0  0  0  0  0  0  0  0  0  0  0  0
   19.8320   13.7360   63.3340 C   0  0  0  0  0  0  0  0  0  0  0  0
   18.5600   14.3290   63.2170 C   0  0  0  0  0  0  0  0  0  0  0  0
   20.2930   13.2740   64.5480 C   0  0  0  0  0  0  0  0  0  0  0  0
   21.5570   12.6740   64.6640 C   0  0  0  0  0  0  0  0  0  0  0  0
   22.4140   12.6070   63.5620 C   0  0  0  0  0  0  0  0  0  0  0  0
   23.7660   12.0440   63.6250 C   0  0  0  0  0  0  0  0  0  0  0  0
   23.9390   10.9580   64.6900 C   0  0  1  0  0  0  0  0  0  0  0  0
   23.0030    9.7640   64.5140 C   0  0  0  0  0  0  0  0  0  0  0  0
   22.7980    9.0230   65.4980 O   0  0  0  0  0  0  0  0  0  0  0  0
   22.5610    9.5430   63.3500 O   0  0  0  0  0  0  0  0  0  0  0  0
   25.3370   10.6640   65.0500 C   0  0  0  0  0  0  0  0  0  0  0  0
   24.4190   11.3020   66.0910 C   0  0  1  0  0  0  0  0  0  0  0  0
   24.5350   12.6830   66.5380 C   0  0  0  0  0  0  0  0  0  0  0  0
   23.6750   13.1450   67.5490 C   0  0  0  0  0  0  0  0  0  0  0  0
   23.7140   14.4150   68.0150 C   0  0  0  0  0  0  0  0  0  0  0  0
   24.6380   15.3000   67.5400 C   0  0  0  0  0  0  0  0  0  0  0  0
   25.4940   14.8600   66.5500 C   0  0  0  0  0  0  0  0  0  0  0  0
   25.4760   13.5940   66.0670 C   0  0  0  0  0  0  0  0  0  0  0  0
  1  2  2  0
  2  3  1  0
  3  4  1  0
  3  5  2  0
  5  6  1  0
  6  7  2  0
  1  7  1  0
  7  8  1  0
  9  8  1  6
  9 10  1  0
 10 11  1  0
 10 12  2  0
  9 13  1  0
 13 14  1  0
  9 14  1  0
 14 15  1  6
 15 16  2  0
 16 17  1  0
 17 18  2  0
 18 19  1  0
 19 20  2  0
 15 20  1  0
M  END
$$$$
