1HWW_SWA_A_1103
     RDKit          3D

 12 13  0  0  0  0  0  0  0  0999 V2000
   31.0850   66.8500    6.1040 C   0  0  1  0  0  0  0  0  0  0  0  0
   31.6160   67.9930    5.4120 O   0  0  0  0  0  0  0  0  0  0  0  0
   31.2910   67.0030    7.6490 C   0  0  1  0  0  0  0  0  0  0  0  0
   30.7310   65.8070    8.3070 N   0  0  0  0  0  0  0  0  0  0  0  0
   29.2560   65.6700    8.1360 C   0  0  0  0  0  0  0  0  0  0  0  0
   28.9520   65.4970    6.6230 C   0  0  0  0  0  0  0  0  0  0  0  0
   29.5540   66.6860    5.8180 C   0  0  0  0  0  0  0  0  0  0  0  0
   31.2840   65.7130    9.6520 C   0  0  0  0  0  0  0  0  0  0  0  0
   32.6480   66.4480    9.5970 C   0  0  1  0  0  0  0  0  0  0  0  0
   33.7150   65.5340    9.8330 O   0  0  0  0  0  0  0  0  0  0  0  0
   32.7550   67.0820    8.1610 C   0  0  1  0  0  0  0  0  0  0  0  0
   33.6410   66.3140    7.3190 O   0  0  0  0  0  0  0  0  0  0  0  0
  1  2  1  6
  1  3  1  0
  3  4  1  1
  4  5  1  0
  5  6  1  0
  1  7  1  0
  6  7  1  0
  4  8  1  0
  8  9  1  0
  9 10  1  6
  3 11  1  0
  9 11  1  0
 11 12  1  6
M  END
$$$$
