1HWW_SWA_A_1103
     RDKit          3D

 27 28  0  0  0  0  0  0  0  0999 V2000
   30.7761   65.7716    6.0121 C   0  0  1  0  0  0  0  0  0  0  0  0
   31.3359   66.3304    4.8115 O   0  0  0  0  0  0  0  0  0  0  0  0
   31.2084   66.6142    7.2596 C   0  0  1  0  0  0  0  0  0  0  0  0
   30.6093   65.9983    8.4591 N   0  0  0  0  0  0  0  0  0  0  0  0
   29.1190   66.0465    8.4708 C   0  0  0  0  0  0  0  0  0  0  0  0
   28.5924   65.2186    7.2671 C   0  0  0  0  0  0  0  0  0  0  0  0
   29.2118   65.7505    5.9413 C   0  0  0  0  0  0  0  0  0  0  0  0
   31.3269   66.4736    9.6351 C   0  0  0  0  0  0  0  0  0  0  0  0
   32.7462   66.8489    9.1370 C   0  0  1  0  0  0  0  0  0  0  0  0
   33.7224   65.9976    9.7301 O   0  0  0  0  0  0  0  0  0  0  0  0
   32.7279   66.6826    7.5724 C   0  0  1  0  0  0  0  0  0  0  0  0
   33.3951   65.4668    7.1716 O   0  0  0  0  0  0  0  0  0  0  0  0
   31.1419   64.7702    6.1040 H   0  0  0  0  0  0  0  0  0  0  0  0
   31.0208   67.2412    4.7014 H   0  0  0  0  0  0  0  0  0  0  0  0
   30.8857   67.6064    7.0224 H   0  0  0  0  0  0  0  0  0  0  0  0
   28.7895   67.0608    8.3837 H   0  0  0  0  0  0  0  0  0  0  0  0
   28.7452   65.6408    9.3877 H   0  0  0  0  0  0  0  0  0  0  0  0
   27.5269   65.3026    7.2186 H   0  0  0  0  0  0  0  0  0  0  0  0
   28.8708   64.1938    7.3977 H   0  0  0  0  0  0  0  0  0  0  0  0
   28.9080   65.1157    5.1353 H   0  0  0  0  0  0  0  0  0  0  0  0
   28.8674   66.7514    5.7854 H   0  0  0  0  0  0  0  0  0  0  0  0
   31.3829   65.7026   10.3749 H   0  0  0  0  0  0  0  0  0  0  0  0
   30.8338   67.3081   10.0882 H   0  0  0  0  0  0  0  0  0  0  0  0
   33.0027   67.8514    9.4092 H   0  0  0  0  0  0  0  0  0  0  0  0
   33.5253   65.0746    9.5064 H   0  0  0  0  0  0  0  0  0  0  0  0
   33.2361   67.4685    7.0536 H   0  0  0  0  0  0  0  0  0  0  0  0
   32.9784   64.7092    7.6113 H   0  0  0  0  0  0  0  0  0  0  0  0
  1  2  1  0
  1  3  1  0
  3  4  1  0
  4  5  1  0
  5  6  1  0
  1  7  1  0
  6  7  1  0
  4  8  1  0
  8  9  1  0
  9 10  1  0
  3 11  1  0
  9 11  1  0
 11 12  1  0
  1 13  1  1
  2 14  1  0
  3 15  1  6
  5 16  1  0
  5 17  1  0
  6 18  1  0
  6 19  1  0
  7 20  1  0
  7 21  1  0
  8 22  1  0
  8 23  1  0
  9 24  1  6
 10 25  1  0
 11 26  1  6
 12 27  1  0
M  END
