1HWW_SWA_A_1103
     RDKit          3D

 27 28  0  0  0  0  0  0  0  0999 V2000
   -0.4594    1.4627    0.1014 C   0  0  1  0  0  0  0  0  0  0  0  0
   -0.0478    2.7537   -0.2670 O   0  0  0  0  0  0  0  0  0  0  0  0
    0.5957    0.4282   -0.3771 C   0  0  1  0  0  0  0  0  0  0  0  0
    0.5416   -0.8709    0.3338 N   0  0  0  0  0  0  0  0  0  0  0  0
   -0.7504   -1.1169    1.0042 C   0  0  0  0  0  0  0  0  0  0  0  0
   -1.0224   -0.0448    2.0727 C   0  0  0  0  0  0  0  0  0  0  0  0
   -0.5986    1.3683    1.6266 C   0  0  0  0  0  0  0  0  0  0  0  0
    0.8408   -1.9156   -0.6643 C   0  0  0  0  0  0  0  0  0  0  0  0
    1.2504   -1.2173   -1.9585 C   0  0  1  0  0  0  0  0  0  0  0  0
    0.8436   -1.9399   -3.0915 O   0  0  0  0  0  0  0  0  0  0  0  0
    0.5641    0.1349   -1.8792 C   0  0  1  0  0  0  0  0  0  0  0  0
   -0.7603    0.0399   -2.3441 O   0  0  0  0  0  0  0  0  0  0  0  0
   -1.4551    1.2459   -0.3502 H   0  0  0  0  0  0  0  0  0  0  0  0
   -0.8390    3.3459   -0.1709 H   0  0  0  0  0  0  0  0  0  0  0  0
    1.5967    0.8636   -0.1519 H   0  0  0  0  0  0  0  0  0  0  0  0
   -1.5808   -1.1187    0.2611 H   0  0  0  0  0  0  0  0  0  0  0  0
   -0.7348   -2.1132    1.4988 H   0  0  0  0  0  0  0  0  0  0  0  0
   -2.1084   -0.0501    2.3106 H   0  0  0  0  0  0  0  0  0  0  0  0
   -0.4765   -0.3082    3.0050 H   0  0  0  0  0  0  0  0  0  0  0  0
   -1.3469    2.1094    1.9832 H   0  0  0  0  0  0  0  0  0  0  0  0
    0.3771    1.6254    2.0960 H   0  0  0  0  0  0  0  0  0  0  0  0
    1.6731   -2.5520   -0.2953 H   0  0  0  0  0  0  0  0  0  0  0  0
   -0.0365   -2.5757   -0.8605 H   0  0  0  0  0  0  0  0  0  0  0  0
    2.3554   -1.0632   -1.9729 H   0  0  0  0  0  0  0  0  0  0  0  0
    1.4414   -2.7303   -3.1489 H   0  0  0  0  0  0  0  0  0  0  0  0
    1.1303    0.9133   -2.4436 H   0  0  0  0  0  0  0  0  0  0  0  0
   -0.7315    0.1955   -3.3241 H   0  0  0  0  0  0  0  0  0  0  0  0
  1  2  1  0
  1  3  1  0
  3  4  1  0
  4  5  1  0
  5  6  1  0
  1  7  1  0
  6  7  1  0
  4  8  1  0
  8  9  1  0
  9 10  1  0
  3 11  1  0
  9 11  1  0
 11 12  1  0
  1 13  1  6
  2 14  1  0
  3 15  1  6
  5 16  1  0
  5 17  1  0
  6 18  1  0
  6 19  1  0
  7 20  1  0
  7 21  1  0
  8 22  1  0
  8 23  1  0
  9 24  1  1
 10 25  1  0
 11 26  1  6
 12 27  1  0
M  END
