
     RDKit          3D

 19 21  0  0  0  0  0  0  0  0999 V2000
   16.7603    4.4714    4.0462 O   0  0  0  0  0  0  0  0  0  0  0  0
   16.8034    3.7105    2.9409 C   0  0  0  0  0  0  0  0  0  0  0  0
   16.6535    4.2030    1.8345 O   0  0  0  0  0  0  0  0  0  0  0  0
   17.1338    2.2669    3.2087 C   0  0  0  0  0  0  0  0  0  0  0  0
   18.4010    2.0230    4.0303 C   0  0  0  0  0  0  0  0  0  0  0  0
   19.6727    1.8358    3.1954 C   0  0  0  0  0  0  0  0  0  0  0  0
   19.8504    2.8016    2.1234 N   0  0  0  0  0  0  0  0  0  0  0  0
   20.0636    2.4617    0.7991 C   0  0  0  0  0  0  0  0  0  0  0  0
   20.1340    1.2098    0.1633 C   0  0  0  0  0  0  0  0  0  0  0  0
   20.2116    3.6547    0.0903 C   0  0  0  0  0  0  0  0  0  0  0  0
   20.4340    3.5966   -1.3024 C   0  0  0  0  0  0  0  0  0  0  0  0
   20.5031    2.3557   -1.9429 C   0  0  0  0  0  0  0  0  0  0  0  0
   20.3551    1.1793   -1.2167 C   0  0  0  0  0  0  0  0  0  0  0  0
   20.0971    4.7299    1.0245 C   0  0  0  0  0  0  0  0  0  0  0  0
   19.8816    4.1741    2.2878 C   0  0  0  0  0  0  0  0  0  0  0  0
   19.7301    4.9790    3.4305 C   0  0  0  0  0  0  0  0  0  0  0  0
   20.1628    6.1343    0.8988 C   0  0  0  0  0  0  0  0  0  0  0  0
   20.0101    6.9404    2.0302 C   0  0  0  0  0  0  0  0  0  0  0  0
   19.7959    6.3671    3.2781 C   0  0  0  0  0  0  0  0  0  0  0  0
  1  2  1  0
  2  3  2  0
  2  4  1  0
  4  5  1  0
  5  6  1  0
  6  7  1  0
  7  8  4  0
  8  9  4  0
  8 10  4  0
 10 11  4  0
 11 12  4  0
  9 13  4  0
 12 13  4  0
 10 14  4  0
  7 15  4  0
 14 15  4  0
 15 16  4  0
 14 17  4  0
 17 18  4  0
 16 19  4  0
 18 19  4  0
M  END
