7BA0_T5H_A_201
     RDKit          3D

110115  0  0  0  0  0  0  0  0999 V2000
  -17.1949   -1.3133   -2.0905 C   0  0  0  0  0  0  0  0  0  0  0  0
  -16.7117   -2.6654   -1.8357 C   0  0  0  0  0  0  0  0  0  0  0  0
  -15.2824   -2.6304   -1.3296 C   0  0  0  0  0  0  0  0  0  0  0  0
  -15.1900   -1.8109   -0.0797 C   0  0  0  0  0  0  0  0  0  0  0  0
  -15.6974   -0.4597   -0.2632 C   0  0  0  0  0  0  0  0  0  0  0  0
  -17.1574   -0.4042   -0.8651 C   0  0  1  0  0  0  0  0  0  0  0  0
  -17.6808    1.0452   -1.1704 C   0  0  1  0  0  0  0  0  0  0  0  0
  -18.7371    0.9880   -2.1783 C   0  0  0  0  0  0  0  0  0  0  0  0
  -19.4396   -0.0391   -2.3014 O   0  0  0  0  0  0  0  0  0  0  0  0
  -19.0305    2.0469   -2.9501 N   0  0  0  0  0  0  0  0  0  0  0  0
  -18.4296    3.4078   -2.7058 C   0  0  0  0  0  0  0  0  0  0  0  0
  -18.1830    4.0828   -4.0363 C   0  0  0  0  0  0  0  0  0  0  0  0
  -19.3780    4.1581   -4.8672 C   0  0  0  0  0  0  0  0  0  0  0  0
  -19.8360    2.7417   -5.1713 C   0  0  0  0  0  0  0  0  0  0  0  0
  -20.1795    1.9978   -3.8863 C   0  0  2  0  0  0  0  0  0  0  0  0
  -21.4312    2.5686   -3.3245 C   0  0  0  0  0  0  0  0  0  0  0  0
  -22.4577    2.6670   -3.9753 O   0  0  0  0  0  0  0  0  0  0  0  0
  -21.3971    2.9294   -2.0373 O   0  0  0  0  0  0  0  0  0  0  0  0
  -22.5761    3.5907   -1.4914 C   0  0  1  0  0  0  0  0  0  0  0  0
  -23.1617    2.6360   -0.4063 C   0  0  0  0  0  0  0  0  0  0  0  0
  -22.0472    1.9029    0.3926 C   0  0  0  0  0  0  0  0  0  0  0  0
  -21.1901    2.9523    1.2067 C   0  0  0  0  0  0  0  0  0  0  0  0
  -19.8371    3.1420    0.9648 C   0  0  0  0  0  0  0  0  0  0  0  0
  -21.8237    3.7055    2.1766 C   0  0  0  0  0  0  0  0  0  0  0  0
  -21.0768    4.6770    2.8705 C   0  0  0  0  0  0  0  0  0  0  0  0
  -19.7064    4.8200    2.6292 C   0  0  0  0  0  0  0  0  0  0  0  0
  -18.8723    5.7103    3.2643 O   0  0  0  0  0  0  0  0  0  0  0  0
  -19.0243    7.0730    2.9322 C   0  0  0  0  0  0  0  0  0  0  0  0
  -19.1088    4.0435    1.6687 C   0  0  0  0  0  0  0  0  0  0  0  0
  -17.7875    4.3055    1.4611 O   0  0  0  0  0  0  0  0  0  0  0  0
  -17.4046    5.0891    0.3499 C   0  0  0  0  0  0  0  0  0  0  0  0
  -22.1532    4.9204   -1.0720 C   0  0  0  0  0  0  0  0  0  0  0  0
  -21.2274    5.0372   -0.0776 C   0  0  0  0  0  0  0  0  0  0  0  0
  -22.6892    6.0927   -1.6379 C   0  0  0  0  0  0  0  0  0  0  0  0
  -22.3269    7.3615   -1.1981 C   0  0  0  0  0  0  0  0  0  0  0  0
  -21.3258    7.4474   -0.2168 C   0  0  0  0  0  0  0  0  0  0  0  0
  -20.8247    6.2691    0.3430 C   0  0  0  0  0  0  0  0  0  0  0  0
  -19.9014    6.3235    1.3945 O   0  0  0  0  0  0  0  0  0  0  0  0
  -20.1656    7.2921    2.3497 C   0  0  0  0  0  0  0  0  0  0  0  0
  -19.5373    6.8977    3.6889 C   0  0  2  0  0  0  0  0  0  0  0  0
  -18.1459    6.6025    3.4946 O   0  0  0  0  0  0  0  0  0  0  0  0
  -20.1645    5.7557    4.4188 C   0  0  2  0  0  0  0  0  0  0  0  0
  -19.5073    5.4897    5.6863 O   0  0  0  0  0  0  0  0  0  0  0  0
  -20.3198    4.3726    3.7206 C   0  0  0  0  0  0  0  0  0  0  0  0
  -19.0260    3.7357    3.6357 O   0  0  0  0  0  0  0  0  0  0  0  0
  -18.7472    3.0611    2.4482 C   0  0  0  0  0  0  0  0  0  0  0  0
  -17.6885    3.5070    1.6823 C   0  0  0  0  0  0  0  0  0  0  0  0
  -17.0550    4.6043    2.1805 O   0  0  0  0  0  0  0  0  0  0  0  0
  -17.8132    5.8694    2.0267 C   0  0  0  0  0  0  0  0  0  0  0  0
  -17.3433    2.7831    0.5194 C   0  0  0  0  0  0  0  0  0  0  0  0
  -18.0901    1.7436    0.0765 C   0  0  0  0  0  0  0  0  0  0  0  0
  -19.1970    1.3267    0.8294 C   0  0  0  0  0  0  0  0  0  0  0  0
  -19.4895    1.9400    2.0429 C   0  0  0  0  0  0  0  0  0  0  0  0
  -20.5536    1.5582    2.8420 O   0  0  0  0  0  0  0  0  0  0  0  0
  -21.0318    0.2338    2.7156 C   0  0  0  0  0  0  0  0  0  0  0  0
  -16.5859   -0.8757   -2.8539 H   0  0  0  0  0  0  0  0  0  0  0  0
  -18.2204   -1.3990   -2.3834 H   0  0  0  0  0  0  0  0  0  0  0  0
  -17.3347   -3.1295   -1.1000 H   0  0  0  0  0  0  0  0  0  0  0  0
  -16.7426   -3.2225   -2.7488 H   0  0  0  0  0  0  0  0  0  0  0  0
  -14.9578   -3.6286   -1.1212 H   0  0  0  0  0  0  0  0  0  0  0  0
  -14.6596   -2.1899   -2.0799 H   0  0  0  0  0  0  0  0  0  0  0  0
  -15.7598   -2.2905    0.6885 H   0  0  0  0  0  0  0  0  0  0  0  0
  -14.1562   -1.7376    0.1864 H   0  0  0  0  0  0  0  0  0  0  0  0
  -15.7057    0.0299    0.6883 H   0  0  0  0  0  0  0  0  0  0  0  0
  -15.0514    0.0236   -0.9661 H   0  0  0  0  0  0  0  0  0  0  0  0
  -17.8409   -0.7566   -0.1211 H   0  0  0  0  0  0  0  0  0  0  0  0
  -16.8863    1.6328   -1.5805 H   0  0  0  0  0  0  0  0  0  0  0  0
  -19.1050    3.9990   -2.1233 H   0  0  0  0  0  0  0  0  0  0  0  0
  -17.5059    3.3054   -2.1755 H   0  0  0  0  0  0  0  0  0  0  0  0
  -17.8312    5.0767   -3.8542 H   0  0  0  0  0  0  0  0  0  0  0  0
  -17.4625    3.4943   -4.5648 H   0  0  0  0  0  0  0  0  0  0  0  0
  -20.1498    4.6837   -4.3447 H   0  0  0  0  0  0  0  0  0  0  0  0
  -19.1632    4.6798   -5.7763 H   0  0  0  0  0  0  0  0  0  0  0  0
  -20.7030    2.7799   -5.7973 H   0  0  0  0  0  0  0  0  0  0  0  0
  -19.0422    2.2230   -5.6671 H   0  0  0  0  0  0  0  0  0  0  0  0
  -20.3603    0.9605   -4.0767 H   0  0  0  0  0  0  0  0  0  0  0  0
  -23.3840    3.7618   -2.1718 H   0  0  0  0  0  0  0  0  0  0  0  0
  -23.7535    3.2106    0.2754 H   0  0  0  0  0  0  0  0  0  0  0  0
  -23.7516    1.8948   -0.9039 H   0  0  0  0  0  0  0  0  0  0  0  0
  -22.4958    1.2081    1.0714 H   0  0  0  0  0  0  0  0  0  0  0  0
  -21.4096    1.3811   -0.2902 H   0  0  0  0  0  0  0  0  0  0  0  0
  -19.3738    2.5833    0.2312 H   0  0  0  0  0  0  0  0  0  0  0  0
  -22.8231    3.5593    2.3879 H   0  0  0  0  0  0  0  0  0  0  0  0
  -21.5428    5.2866    3.5606 H   0  0  0  0  0  0  0  0  0  0  0  0
  -18.3223    7.6565    3.4903 H   0  0  0  0  0  0  0  0  0  0  0  0
  -18.8471    7.2069    1.8855 H   0  0  0  0  0  0  0  0  0  0  0  0
  -20.0188    7.3890    3.1690 H   0  0  0  0  0  0  0  0  0  0  0  0
  -16.3400    5.1955    0.3383 H   0  0  0  0  0  0  0  0  0  0  0  0
  -17.7252    4.6103   -0.5517 H   0  0  0  0  0  0  0  0  0  0  0  0
  -17.8588    6.0554    0.4215 H   0  0  0  0  0  0  0  0  0  0  0  0
  -20.8306    4.1898    0.3578 H   0  0  0  0  0  0  0  0  0  0  0  0
  -23.3740    6.0078   -2.4052 H   0  0  0  0  0  0  0  0  0  0  0  0
  -22.7771    8.2086   -1.5788 H   0  0  0  0  0  0  0  0  0  0  0  0
  -20.9661    8.3660    0.0862 H   0  0  0  0  0  0  0  0  0  0  0  0
  -19.7556    8.2267    2.0283 H   0  0  0  0  0  0  0  0  0  0  0  0
  -21.2246    7.3814    2.4733 H   0  0  0  0  0  0  0  0  0  0  0  0
  -19.7036    7.7509    4.3130 H   0  0  0  0  0  0  0  0  0  0  0  0
  -18.0574    5.8233    2.9237 H   0  0  0  0  0  0  0  0  0  0  0  0
  -21.1560    6.1493    4.5015 H   0  0  0  0  0  0  0  0  0  0  0  0
  -18.6187    5.1373    5.5220 H   0  0  0  0  0  0  0  0  0  0  0  0
  -20.9850    3.7571    4.2895 H   0  0  0  0  0  0  0  0  0  0  0  0
  -20.7187    4.5090    2.7371 H   0  0  0  0  0  0  0  0  0  0  0  0
  -17.2474    6.6770    2.4419 H   0  0  0  0  0  0  0  0  0  0  0  0
  -17.9902    6.0550    0.9878 H   0  0  0  0  0  0  0  0  0  0  0  0
  -18.7490    5.7888    2.5391 H   0  0  0  0  0  0  0  0  0  0  0  0
  -16.4983    3.0539   -0.0074 H   0  0  0  0  0  0  0  0  0  0  0  0
  -19.7967    0.5621    0.4819 H   0  0  0  0  0  0  0  0  0  0  0  0
  -21.8491    0.0838    3.3897 H   0  0  0  0  0  0  0  0  0  0  0  0
  -21.3627    0.0683    1.7116 H   0  0  0  0  0  0  0  0  0  0  0  0
  -20.2457   -0.4532    2.9498 H   0  0  0  0  0  0  0  0  0  0  0  0
  1  2  1  0
  2  3  1  0
  3  4  1  0
  4  5  1  0
  1  6  1  0
  5  6  1  0
  7  6  1  0
  7  8  1  0
  8  9  2  0
  8 10  1  0
 10 11  1  0
 11 12  1  0
 12 13  1  0
 13 14  1  0
 15 14  1  0
 10 15  1  0
 15 16  1  0
 16 17  2  0
 16 18  1  0
 18 19  1  0
 19 20  1  0
 20 21  1  0
 21 22  1  0
 22 23  4  0
 22 24  4  0
 24 25  4  0
 25 26  4  0
 26 27  1  0
 27 28  1  0
 26 29  4  0
 23 29  4  0
 29 30  1  0
 30 31  1  0
 19 32  1  0
 32 33  4  0
 32 34  4  0
 34 35  4  0
 35 36  4  0
 36 37  4  0
 33 37  4  0
 37 38  1  0
 38 39  1  0
 39 40  1  0
 40 41  1  0
 40 42  1  0
 42 43  1  0
 42 44  1  0
 44 45  1  0
 45 46  1  0
 46 47  4  0
 47 48  1  0
 48 49  1  0
 47 50  4  0
  7 51  1  0
 50 51  4  0
 51 52  4  0
 52 53  4  0
 46 53  4  0
 53 54  1  0
 54 55  1  0
  1 56  1  0
  1 57  1  0
  2 58  1  0
  2 59  1  0
  3 60  1  0
  3 61  1  0
  4 62  1  0
  4 63  1  0
  5 64  1  0
  5 65  1  0
  6 66  1  6
  7 67  1  1
 11 68  1  0
 11 69  1  0
 12 70  1  0
 12 71  1  0
 13 72  1  0
 13 73  1  0
 14 74  1  0
 14 75  1  0
 15 76  1  1
 19 77  1  1
 20 78  1  0
 20 79  1  0
 21 80  1  0
 21 81  1  0
 23 82  1  0
 24 83  1  0
 25 84  1  0
 28 85  1  0
 28 86  1  0
 28 87  1  0
 31 88  1  0
 31 89  1  0
 31 90  1  0
 33 91  1  0
 34 92  1  0
 35 93  1  0
 36 94  1  0
 39 95  1  0
 39 96  1  0
 40 97  1  6
 41 98  1  0
 42 99  1  6
 43100  1  0
 44101  1  0
 44102  1  0
 49103  1  0
 49104  1  0
 49105  1  0
 50106  1  0
 52107  1  0
 55108  1  0
 55109  1  0
 55110  1  0
M  END
