6W59_SZD_A_602
     RDKit          3D

 32 34  0  0  0  0  0  0  0  0999 V2000
   -3.1470  -23.0138  -18.9598 N   0  0  0  0  0  0  0  0  0  0  0  0
   -1.1056  -25.2022  -18.9390 C   0  0  0  0  0  0  0  0  0  0  0  0
   -1.8911  -24.9278  -20.0313 C   0  0  0  0  0  0  0  0  0  0  0  0
   -1.7996  -25.7591  -21.1181 C   0  0  0  0  0  0  0  0  0  0  0  0
   -2.8164  -23.8011  -20.0976 C   0  0  0  0  0  0  0  0  0  0  0  0
   -3.9899  -21.8656  -19.0334 C   0  0  0  0  0  0  0  0  0  0  0  0
   -4.8868  -19.8425  -18.1883 C   0  0  0  0  0  0  0  0  0  0  0  0
   -4.7690  -21.7219  -20.1587 C   0  0  0  0  0  0  0  0  0  0  0  0
   -9.4352  -19.6187  -20.7911 C   0  0  0  0  0  0  0  0  0  0  0  0
  -11.6094  -20.0502  -19.8668 C   0  0  0  0  0  0  0  0  0  0  0  0
  -13.7746  -18.8941  -19.9877 C   0  0  1  0  0  0  0  0  0  0  0  0
   -0.9422  -26.8601  -21.1434 C   0  0  0  0  0  0  0  0  0  0  0  0
   -0.1484  -27.1282  -20.0258 C   0  0  0  0  0  0  0  0  0  0  0  0
   -0.2497  -26.2820  -18.9351 C   0  0  0  0  0  0  0  0  0  0  0  0
   -0.8623  -27.6756  -22.2288 F   0  0  0  0  0  0  0  0  0  0  0  0
    0.5115  -26.5100  -17.8189 F   0  0  0  0  0  0  0  0  0  0  0  0
   -3.3787  -23.4645  -21.1879 O   0  0  0  0  0  0  0  0  0  0  0  0
   -4.0333  -20.9187  -18.0141 C   0  0  0  0  0  0  0  0  0  0  0  0
   -5.6713  -19.7088  -19.3340 C   0  0  0  0  0  0  0  0  0  0  0  0
   -5.6217  -20.6569  -20.3445 C   0  0  0  0  0  0  0  0  0  0  0  0
   -6.6216  -20.4375  -21.7485 S   0  0  2  0  0  0  0  0  0  0  0  0
   -8.0736  -21.3292  -21.7476 N   0  0  0  0  0  0  0  0  0  0  0  0
   -5.7850  -20.8903  -22.9434 O   0  0  0  0  0  0  0  0  0  0  0  0
   -6.8738  -18.9658  -22.0185 O   0  0  0  0  0  0  0  0  0  0  0  0
   -9.2776  -20.9702  -21.1145 C   0  0  0  0  0  0  0  0  0  0  0  0
  -10.5803  -19.1531  -20.1758 C   0  0  0  0  0  0  0  0  0  0  0  0
  -11.4770  -21.3893  -20.1762 C   0  0  0  0  0  0  0  0  0  0  0  0
  -10.3075  -21.8117  -20.7945 C   0  0  0  0  0  0  0  0  0  0  0  0
  -12.7194  -19.5142  -19.2549 O   0  0  0  0  0  0  0  0  0  0  0  0
  -13.3435  -17.8249  -20.7164 F   0  0  0  0  0  0  0  0  0  0  0  0
  -14.2658  -19.8634  -20.8714 F   0  0  0  0  0  0  0  0  0  0  0  0
  -14.8216  -18.5803  -19.1572 F   0  0  0  0  0  0  0  0  0  0  0  0
  2  3  2  0
  3  4  1  0
  3  5  1  0
  1  5  1  0
  1  6  1  0
  6  8  2  0
  4 12  2  0
 12 13  1  0
 13 14  2  0
  2 14  1  0
 12 15  1  0
 14 16  1  0
  5 17  2  0
  6 18  1  0
  7 18  2  0
  7 19  1  0
  8 20  1  0
 19 20  2  0
 20 21  1  0
 21 22  1  1
 21 23  2  0
 21 24  2  0
  9 25  2  0
 22 25  1  0
 10 26  2  0
  9 26  1  0
 10 27  1  0
 27 28  2  0
 25 28  1  0
 11 29  1  0
 10 29  1  0
 11 30  1  6
 11 31  1  0
 11 32  1  0
M  END
$$$$
