
     RDKit          3D

 20 21  0  0  0  0  0  0  0  0999 V2000
    9.7255  139.6319   44.5865 O   0  0  0  0  0  0  0  0  0  0  0  0
    8.8093  139.1945   45.5887 C   0  0  0  0  0  0  0  0  0  0  0  0
    9.1142  137.7536   45.9946 C   0  0  0  0  0  0  0  0  0  0  0  0
    9.6237  136.9921   44.8981 O   0  0  0  0  0  0  0  0  0  0  0  0
    9.8032  135.6110   45.2215 C   0  0  0  0  0  0  0  0  0  0  0  0
   11.1437  135.4323   45.7514 N   0  0  0  0  0  0  0  0  0  0  0  0
   11.2911  134.9554   47.0429 C   0  0  0  0  0  0  0  0  0  0  0  0
   10.3626  134.6803   47.7957 O   0  0  0  0  0  0  0  0  0  0  0  0
   12.5827  134.7947   47.4681 N   0  0  0  0  0  0  0  0  0  0  0  0
   13.7124  135.0251   46.7317 C   0  0  0  0  0  0  0  0  0  0  0  0
   14.8315  134.8349   47.1993 O   0  0  0  0  0  0  0  0  0  0  0  0
   12.2334  135.7069   44.9466 C   0  0  0  0  0  0  0  0  0  0  0  0
   13.4973  135.5225   45.3527 C   0  0  0  0  0  0  0  0  0  0  0  0
   14.7018  135.8298   44.5123 C   0  0  0  0  0  0  0  0  0  0  0  0
   15.2645  137.2077   44.7715 C   0  0  0  0  0  0  0  0  0  0  0  0
   14.5487  138.3515   44.3893 C   0  0  0  0  0  0  0  0  0  0  0  0
   15.0578  139.6253   44.6444 C   0  0  0  0  0  0  0  0  0  0  0  0
   16.2878  139.7686   45.2833 C   0  0  0  0  0  0  0  0  0  0  0  0
   17.0025  138.6387   45.6747 C   0  0  0  0  0  0  0  0  0  0  0  0
   16.4984  137.3643   45.4191 C   0  0  0  0  0  0  0  0  0  0  0  0
  1  2  1  0
  2  3  1  0
  3  4  1  0
  4  5  1  0
  5  6  1  0
  6  7  4  0
  7  8  2  0
  7  9  4  0
  9 10  4  0
 10 11  2  0
  6 12  4  0
 10 13  4  0
 12 13  4  0
 13 14  1  0
 14 15  1  0
 15 16  4  0
 16 17  4  0
 17 18  4  0
 18 19  4  0
 15 20  4  0
 19 20  4  0
M  END
