1Z95_198_A_501
     RDKit          3D

 29 30  0  0  0  0  0  0  0  0999 V2000
   28.3906   -1.2681    1.2688 C   0  0  0  0  0  0  0  0  0  0  0  0
   27.7680   -2.0189    0.2751 C   0  0  0  0  0  0  0  0  0  0  0  0
   27.6379   -3.3923    0.3719 C   0  0  0  0  0  0  0  0  0  0  0  0
   27.0352   -4.1119   -0.5917 F   0  0  0  0  0  0  0  0  0  0  0  0
   28.1347   -4.0533    1.4801 C   0  0  0  0  0  0  0  0  0  0  0  0
   28.7506   -3.3062    2.4621 C   0  0  0  0  0  0  0  0  0  0  0  0
   28.8841   -1.9285    2.3706 C   0  0  0  0  0  0  0  0  0  0  0  0
   29.6889   -1.0699    3.6830 S   0  0  1  0  0  0  0  0  0  0  0  0
   30.8857   -1.8756    4.0889 O   0  0  0  0  0  0  0  0  0  0  0  0
   30.0620    0.2679    3.1686 O   0  0  0  0  0  0  0  0  0  0  0  0
   28.5169   -0.9587    5.0250 C   0  0  0  0  0  0  0  0  0  0  0  0
   29.0000    0.0872    6.0088 C   0  0  1  0  0  0  0  0  0  0  0  0
   28.7599   -0.3856    7.3073 O   0  0  0  0  0  0  0  0  0  0  0  0
   30.4918    0.2989    5.9034 C   0  0  0  0  0  0  0  0  0  0  0  0
   28.3531    1.4048    5.7681 C   0  0  0  0  0  0  0  0  0  0  0  0
   29.0600    2.3200    5.2638 O   0  0  0  0  0  0  0  0  0  0  0  0
   26.9763    1.5941    6.1079 N   0  0  0  0  0  0  0  0  0  0  0  0
   26.3589    2.8553    5.8312 C   0  0  0  0  0  0  0  0  0  0  0  0
   27.1759    3.8367    5.2729 C   0  0  0  0  0  0  0  0  0  0  0  0
   25.0277    3.1059    6.0958 C   0  0  0  0  0  0  0  0  0  0  0  0
   24.4920    4.3448    5.8053 C   0  0  0  0  0  0  0  0  0  0  0  0
   25.3060    5.3145    5.2518 C   0  0  0  0  0  0  0  0  0  0  0  0
   24.7338    6.5799    4.9617 C   0  0  0  0  0  0  0  0  0  0  0  0
   24.2767    7.6096    4.7448 N   0  0  0  0  0  0  0  0  0  0  0  0
   26.6397    5.0575    4.9888 C   0  0  0  0  0  0  0  0  0  0  0  0
   27.5021    6.1097    4.3938 C   0  0  1  0  0  0  0  0  0  0  0  0
   26.9299    6.7116    3.3155 F   0  0  0  0  0  0  0  0  0  0  0  0
   27.7178    7.0457    5.3788 F   0  0  0  0  0  0  0  0  0  0  0  0
   28.7053    5.5099    4.0843 F   0  0  0  0  0  0  0  0  0  0  0  0
  1  2  2  0
  2  3  1  0
  3  4  1  0
  3  5  2  0
  5  6  1  0
  1  7  1  0
  6  7  2  0
  7  8  1  0
  8  9  2  0
  8 10  2  0
  8 11  1  1
 11 12  1  0
 12 13  1  0
 12 14  1  1
 12 15  1  0
 15 16  2  0
 15 17  1  0
 17 18  1  0
 18 19  2  0
 18 20  1  0
 20 21  2  0
 21 22  1  0
 22 23  1  0
 23 24  3  0
 19 25  1  0
 22 25  2  0
 25 26  1  0
 26 27  1  6
 26 28  1  0
 26 29  1  0
M  END
$$$$
