1Z95_198_A_501
     RDKit          3D

 29 30  0  0  0  0  0  0  0  0999 V2000
   28.8472    1.1411    9.1910 C   0  0  0  0  0  0  0  0  0  0  0  0
   28.7275    0.7934   10.5340 C   0  0  0  0  0  0  0  0  0  0  0  0
   29.7495    0.1604   11.2175 C   0  0  0  0  0  0  0  0  0  0  0  0
   29.6277   -0.1730   12.5151 F   0  0  0  0  0  0  0  0  0  0  0  0
   30.9294   -0.1425   10.5635 C   0  0  0  0  0  0  0  0  0  0  0  0
   31.0440    0.2035    9.2335 C   0  0  0  0  0  0  0  0  0  0  0  0
   30.0224    0.8385    8.5425 C   0  0  0  0  0  0  0  0  0  0  0  0
   30.2733    1.2364    6.8436 S   0  0  1  0  0  0  0  0  0  0  0  0
   29.5556    2.5224    6.5655 O   0  0  0  0  0  0  0  0  0  0  0  0
   31.7344    1.3526    6.6311 O   0  0  0  0  0  0  0  0  0  0  0  0
   29.5708   -0.0988    5.8894 C   0  0  0  0  0  0  0  0  0  0  0  0
   29.2668    0.4065    4.4940 C   0  0  1  0  0  0  0  0  0  0  0  0
   30.4579    0.8878    3.9307 O   0  0  0  0  0  0  0  0  0  0  0  0
   28.7916   -0.7086    3.5929 C   0  0  0  0  0  0  0  0  0  0  0  0
   28.1997    1.4426    4.5077 C   0  0  0  0  0  0  0  0  0  0  0  0
   27.0942    1.1367    5.0332 O   0  0  0  0  0  0  0  0  0  0  0  0
   28.4507    2.7302    3.9369 N   0  0  0  0  0  0  0  0  0  0  0  0
   27.4630    3.7567    4.0752 C   0  0  0  0  0  0  0  0  0  0  0  0
   26.2817    3.3978    4.7217 C   0  0  0  0  0  0  0  0  0  0  0  0
   27.6512    5.0389    3.6007 C   0  0  0  0  0  0  0  0  0  0  0  0
   26.6585    5.9842    3.7659 C   0  0  0  0  0  0  0  0  0  0  0  0
   25.4891    5.6236    4.4076 C   0  0  0  0  0  0  0  0  0  0  0  0
   24.4831    6.6113    4.5659 C   0  0  0  0  0  0  0  0  0  0  0  0
   23.6665    7.4038    4.7124 N   0  0  0  0  0  0  0  0  0  0  0  0
   25.3061    4.3366    4.8811 C   0  0  0  0  0  0  0  0  0  0  0  0
   24.0438    3.9639    5.5687 C   0  0  1  0  0  0  0  0  0  0  0  0
   23.9209    2.6209    5.7515 F   0  0  0  0  0  0  0  0  0  0  0  0
   24.0617    4.5922    6.7925 F   0  0  0  0  0  0  0  0  0  0  0  0
   23.0121    4.4892    4.8184 F   0  0  0  0  0  0  0  0  0  0  0  0
  1  2  2  0
  2  3  1  0
  3  4  1  0
  3  5  2  0
  5  6  1  0
  1  7  1  0
  6  7  2  0
  7  8  1  0
  8  9  2  0
  8 10  2  0
  8 11  1  6
 11 12  1  0
 12 13  1  0
 12 14  1  6
 12 15  1  0
 15 16  2  0
 15 17  1  0
 17 18  1  0
 18 19  2  0
 18 20  1  0
 20 21  2  0
 21 22  1  0
 22 23  1  0
 23 24  3  0
 19 25  1  0
 22 25  2  0
 25 26  1  0
 26 27  1  1
 26 28  1  0
 26 29  1  0
M  END
$$$$
