7MFP_Z7P_C_401
     RDKit          3D

 50 53  0  0  0  0  0  0  0  0999 V2000
  -60.4476    7.6792    6.0394 O   0  0  0  0  0  0  0  0  0  0  0  0
  -59.8975    7.6425    4.9122 C   0  0  0  0  0  0  0  0  0  0  0  0
  -59.8419    6.4511    4.2137 C   0  0  0  0  0  0  0  0  0  0  0  0
  -59.2367    6.3952    2.9666 C   0  0  0  0  0  0  0  0  0  0  0  0
  -59.3410    8.7328    4.3268 N   0  0  0  0  0  0  0  0  0  0  0  0
  -58.7525    8.6731    3.1106 C   0  0  0  0  0  0  0  0  0  0  0  0
  -58.2456    9.7082    2.5984 O   0  0  0  0  0  0  0  0  0  0  0  0
  -58.7022    7.5087    2.4363 N   0  0  0  0  0  0  0  0  0  0  0  0
  -58.0875    7.4227    1.1522 C   0  0  2  0  0  0  0  0  0  0  0  0
  -58.9112    6.8239    0.2042 O   0  0  0  0  0  0  0  0  0  0  0  0
  -56.8948    6.4538    1.1322 C   0  0  2  0  0  0  0  0  0  0  0  0
  -55.8037    6.9313    1.8118 O   0  0  0  0  0  0  0  0  0  0  0  0
  -56.6815    6.4035   -0.3880 C   0  0  2  0  0  0  0  0  0  0  0  0
  -56.0990    7.6272   -0.7546 O   0  0  0  0  0  0  0  0  0  0  0  0
  -58.1233    6.4448   -0.8501 C   0  0  1  0  0  0  0  0  0  0  0  0
  -58.4472    5.0244   -1.3383 C   0  0  0  0  0  0  0  0  0  0  0  0
  -57.3516    4.2214   -1.1165 O   0  0  0  0  0  0  0  0  0  0  0  0
  -57.4342    3.3432    0.3252 P   0  0  1  0  0  5  0  0  0  0  0  0
  -56.1406    3.6334    1.0934 O   0  0  0  0  0  0  0  0  0  0  0  0
  -58.6843    3.8844    1.2960 O   0  0  0  0  0  0  0  0  0  0  0  0
  -57.4547    1.7151   -0.0104 O   0  0  0  0  0  0  0  0  0  0  0  0
  -58.6306    1.1892   -1.0536 P   0  0  1  0  0  5  0  0  0  0  0  0
  -59.3467    2.4107   -1.6260 O   0  0  0  0  0  0  0  0  0  0  0  0
  -57.9983    0.3627   -2.3910 O   0  0  0  0  0  0  0  0  0  0  0  0
  -59.7728    0.2645   -0.2423 O   0  0  0  0  0  0  0  0  0  0  0  0
  -60.7178   -0.2824   -1.0676 C   0  0  1  0  0  0  0  0  0  0  0  0
  -60.4734   -0.0767   -2.4332 O   0  0  0  0  0  0  0  0  0  0  0  0
  -61.6672   -0.2595   -3.1215 C   0  0  2  0  0  0  0  0  0  0  0  0
  -62.5560    0.9652   -3.1174 C   0  0  0  0  0  0  0  0  0  0  0  0
  -62.4069   -1.4760   -2.5803 C   0  0  2  0  0  0  0  0  0  0  0  0
  -61.3573   -2.4214   -2.0428 C   0  0  2  0  0  0  0  0  0  0  0  0
  -61.8302   -3.6750   -1.7271 O   0  0  0  0  0  0  0  0  0  0  0  0
  -60.8563   -1.7530   -0.7553 C   0  0  1  0  0  0  0  0  0  0  0  0
  -59.6049   -2.2852   -0.4354 O   0  0  0  0  0  0  0  0  0  0  0  0
  -63.2713   -2.0728   -3.5774 N   0  0  0  0  0  0  0  0  0  0  0  0
  -64.4550   -1.6612   -3.7878 C   0  0  0  0  0  0  0  0  0  0  0  0
  -65.4443   -2.2540   -4.6437 C   0  0  0  0  0  0  0  0  0  0  0  0
  -65.5187   -1.8196   -5.9707 C   0  0  0  0  0  0  0  0  0  0  0  0
  -64.6577   -0.8333   -6.4180 O   0  0  0  0  0  0  0  0  0  0  0  0
  -66.4336   -2.3495   -6.8602 C   0  0  0  0  0  0  0  0  0  0  0  0
  -66.4594   -1.8348   -8.2738 C   0  0  0  0  0  0  0  0  0  0  0  0
  -66.3300   -3.2540   -4.2222 C   0  0  0  0  0  0  0  0  0  0  0  0
  -67.2024   -3.7232   -5.1663 C   0  0  0  0  0  0  0  0  0  0  0  0
  -67.2590   -3.2942   -6.4358 N   0  0  0  0  0  0  0  0  0  0  0  0
  -66.2302   -3.6975   -2.8326 C   0  0  0  0  0  0  0  0  0  0  0  0
  -66.4968   -2.7235   -1.8896 O   0  0  0  0  0  0  0  0  0  0  0  0
  -66.4047   -3.3822   -0.3503 P   0  0  2  0  0  5  0  0  0  0  0  0
  -64.8566   -3.9876   -0.0949 O   0  0  0  0  0  0  0  0  0  0  0  0
  -67.3982   -4.5344   -0.2333 O   0  0  0  0  0  0  0  0  0  0  0  0
  -66.8292   -2.2592    0.8471 O   0  0  0  0  0  0  0  0  0  0  0  0
  1  2  2  0
  2  3  1  0
  3  4  2  0
  2  5  1  0
  5  6  1  0
  6  7  2  0
  4  8  1  0
  6  8  1  0
  9  8  1  1
  9 10  1  0
  9 11  1  0
 11 12  1  1
 11 13  1  0
 13 14  1  6
 15 10  1  1
 13 15  1  0
 15 16  1  0
 16 17  1  1
 18 17  1  0
 18 19  2  0
 18 20  1  1
 18 21  1  0
 22 21  1  0
 22 23  2  0
 22 24  1  6
 22 25  1  0
 26 25  1  1
 26 27  1  0
 28 27  1  1
 29 28  1  6
 28 30  1  0
 30 31  1  0
 31 32  1  1
 31 33  1  0
 26 33  1  0
 33 34  1  6
 30 35  1  6
 35 36  2  0
 36 37  1  0
 37 38  2  0
 38 39  1  0
 38 40  1  0
 41 40  1  6
 37 42  1  0
 42 43  2  0
 40 44  2  0
 43 44  1  0
 42 45  1  0
 45 46  1  1
 46 47  1  0
 47 48  1  1
 47 49  2  0
 47 50  1  0
M  END
$$$$
