7M41_YQG_A_201
     RDKit          3D

 32 36  0  0  0  0  0  0  0  0999 V2000
  -21.8260  -38.7350    2.4700 N   0  0  0  0  0  0  0  0  0  0  0  0
  -23.0730  -40.7040   -0.2350 N   0  0  0  0  0  0  0  0  0  0  0  0
  -19.7050  -37.6950    2.7010 C   0  0  0  0  0  0  0  0  0  0  0  0
  -20.5450  -38.4670    1.9540 C   0  0  0  0  0  0  0  0  0  0  0  0
  -20.0980  -38.9420    0.6920 C   0  0  0  0  0  0  0  0  0  0  0  0
  -22.6790  -39.4890    1.7310 C   0  0  0  0  0  0  0  0  0  0  0  0
  -21.0460  -39.7310   -0.0400 C   0  0  0  0  0  0  0  0  0  0  0  0
  -22.7620  -41.8020   -2.5370 C   0  0  0  0  0  0  0  0  0  0  0  0
  -15.1660  -35.5800   -0.1550 C   0  0  0  0  0  0  0  0  0  0  0  0
  -14.2110  -37.8370    0.1800 C   0  0  0  0  0  0  0  0  0  0  0  0
  -17.5310  -34.9880    0.1560 C   0  0  0  0  0  0  0  0  0  0  0  0
  -11.1330  -38.6380   -3.8710 C   0  0  0  0  0  0  0  0  0  0  0  0
  -18.8340  -38.6470    0.1760 C   0  0  0  0  0  0  0  0  0  0  0  0
  -16.5900  -37.4530    0.5500 C   0  0  0  0  0  0  0  0  0  0  0  0
  -16.3690  -35.9850    0.1730 C   0  0  0  0  0  0  0  0  0  0  0  0
  -14.0230  -36.5810   -0.1540 C   0  0  0  0  0  0  0  0  0  0  0  0
  -15.6010  -38.3130    0.5580 C   0  0  0  0  0  0  0  0  0  0  0  0
  -11.9240  -36.6740   -3.0520 C   0  0  0  0  0  0  0  0  0  0  0  0
  -11.7940  -38.0460   -4.8490 C   0  0  0  0  0  0  0  0  0  0  0  0
  -17.9970  -37.8610    0.9570 C   0  0  0  0  0  0  0  0  0  0  0  0
  -18.4630  -37.4150    2.2000 C   0  0  0  0  0  0  0  0  0  0  0  0
  -22.3160  -40.9590   -1.3490 C   0  0  0  0  0  0  0  0  0  0  0  0
  -22.2720  -39.9880    0.4760 N   0  0  0  0  0  0  0  0  0  0  0  0
  -20.9980  -40.3560   -1.2350 N   0  0  0  0  0  0  0  0  0  0  0  0
  -12.6820  -36.1510   -0.4440 N   0  0  0  0  0  0  0  0  0  0  0  0
  -12.3360  -36.6930   -4.2860 N   0  0  0  0  0  0  0  0  0  0  0  0
  -11.2160  -37.8130   -2.8300 N   0  0  0  0  0  0  0  0  0  0  0  0
  -23.9400  -39.7570    2.2250 O   0  0  0  0  0  0  0  0  0  0  0  0
  -10.8950  -34.7400   -1.6410 O   0  0  0  0  0  0  0  0  0  0  0  0
  -13.1400  -34.3700   -2.3440 O   0  0  0  0  0  0  0  0  0  0  0  0
  -12.2070  -35.3740   -1.8470 S   0  0  0  0  0  0  0  0  0  0  0  0
  -17.4490  -36.4180    3.2550 Cl  0  0  0  0  0  0  0  0  0  0  0  0
  1  4  1  0
  3  4  2  0
  4  5  1  0
  1  6  1  0
  5  7  1  0
  5 13  2  0
  9 15  2  0
 11 15  1  0
 14 15  1  0
  9 16  1  0
 10 16  2  0
 10 17  1  0
 14 17  2  0
 12 19  2  0
 13 20  1  0
 14 20  1  0
 20 21  2  0
  3 21  1  0
  8 22  1  0
  2 22  2  0
  2 23  1  0
  7 23  1  0
  6 23  1  0
 22 24  1  0
  7 24  2  0
 16 25  1  0
 19 26  1  0
 18 26  1  0
 12 27  1  0
 18 27  2  0
  6 28  2  0
 18 31  1  0
 30 31  2  0
 29 31  2  0
 25 31  1  0
 21 32  1  0
M  END
$$$$
