7OZC_G6S_AAA_601
     RDKit          3D

 16 16  0  0  0  0  0  0  0  0999 V2000
   11.9527    1.0868   17.6674 C   0  0  2  0  0  0  0  0  0  0  0  0
   11.4932    2.2665   18.5607 C   0  0  1  0  0  0  0  0  0  0  0  0
   11.8696    2.0041   20.0327 C   0  0  2  0  0  0  0  0  0  0  0  0
   11.3600    0.6382   20.5323 C   0  0  2  0  0  0  0  0  0  0  0  0
   11.8936   -0.4186   19.5322 C   0  0  1  0  0  0  0  0  0  0  0  0
   11.4827   -1.8210   19.9111 C   0  0  0  0  0  0  0  0  0  0  0  0
   11.3995    1.2427   16.3722 O   0  0  0  0  0  0  0  0  0  0  0  0
   12.0790    3.4689   18.1014 O   0  0  0  0  0  0  0  0  0  0  0  0
    9.9076    0.5067   20.6884 O   0  0  0  0  0  0  0  0  0  0  0  0
   11.4917   -0.1646   18.2060 O   0  0  0  0  0  0  0  0  0  0  0  0
   12.6250   -2.6741   20.1131 O   0  0  0  0  0  0  0  0  0  0  0  0
   12.4058   -4.0435   20.8453 S   0  0  1  0  0  0  0  0  0  0  0  0
   11.6175   -4.8686   19.9090 O   0  0  0  0  0  0  0  0  0  0  0  0
   13.7782   -4.5126   20.9857 O   0  0  0  0  0  0  0  0  0  0  0  0
   11.7060   -3.8096   22.1341 O   0  0  0  0  0  0  0  0  0  0  0  0
   11.3742    3.0493   20.8872 O   0  0  0  0  0  0  0  0  0  0  0  0
  1  2  1  0
  2  3  1  0
  3  4  1  0
  4  5  1  0
  5  6  1  1
  1  7  1  6
  2  8  1  6
  4  9  1  6
  1 10  1  0
  5 10  1  0
  6 11  1  0
 11 12  1  0
 12 13  2  0
 12 14  2  0
 12 15  1  1
  3 16  1  1
M  END
