7MS7_ZQ1_A_302
     RDKit          3D

 29 31  0  0  0  0  0  0  0  0999 V2000
  -19.5203   51.9704  -23.6711 C   0  0  0  0  0  0  0  0  0  0  0  0
  -20.7624   51.8021  -22.8205 C   0  0  0  0  0  0  0  0  0  0  0  0
  -21.6128   53.0213  -22.8239 C   0  0  2  0  0  0  0  0  0  0  0  0
  -23.0263   52.7590  -23.2352 C   0  0  0  0  0  0  0  0  0  0  0  0
  -23.5448   51.4671  -23.1764 C   0  0  0  0  0  0  0  0  0  0  0  0
  -23.8726   53.7346  -23.6888 C   0  0  0  0  0  0  0  0  0  0  0  0
  -19.5501   52.1149  -27.7317 C   0  0  0  0  0  0  0  0  0  0  0  0
  -17.8855   53.4884  -26.1984 O   0  0  0  0  0  0  0  0  0  0  0  0
  -18.7394   52.2535  -26.1903 S   0  0  2  0  0  6  0  0  0  0  0  0
  -17.9350   51.0234  -25.9134 O   0  0  0  0  0  0  0  0  0  0  0  0
  -19.8150   50.8884  -28.3294 C   0  0  0  0  0  0  0  0  0  0  0  0
  -20.4476   50.9352  -29.5155 N   0  0  0  0  0  0  0  0  0  0  0  0
  -20.8280   52.0521  -30.1406 C   0  0  0  0  0  0  0  0  0  0  0  0
  -21.5104   52.0078  -31.4300 C   0  0  0  0  0  0  0  0  0  0  0  0
  -21.6828   53.0692  -32.0921 O   0  0  0  0  0  0  0  0  0  0  0  0
  -22.0059   50.8116  -32.0015 N   0  0  0  0  0  0  0  0  0  0  0  0
  -22.5336   50.8814  -33.3652 C   0  0  0  0  0  0  0  0  0  0  0  0
  -24.0224   50.8124  -33.3507 C   0  0  0  0  0  0  0  0  0  0  0  0
  -24.7119   52.0114  -33.4121 O   0  0  0  0  0  0  0  0  0  0  0  0
  -24.6665   49.7418  -33.2867 O   0  0  0  0  0  0  0  0  0  0  0  0
  -20.5662   53.2516  -29.5513 C   0  0  0  0  0  0  0  0  0  0  0  0
  -19.9297   53.2898  -28.3506 C   0  0  0  0  0  0  0  0  0  0  0  0
  -19.9074   52.4338  -24.9647 N   0  0  0  0  0  0  0  0  0  0  0  0
  -20.4804   53.7393  -24.9732 C   0  0  0  0  0  0  0  0  0  0  0  0
  -20.9478   54.1104  -23.5911 C   0  0  0  0  0  0  0  0  0  0  0  0
  -25.1678   53.4440  -24.0648 C   0  0  0  0  0  0  0  0  0  0  0  0
  -25.6767   52.1762  -24.0069 C   0  0  0  0  0  0  0  0  0  0  0  0
  -27.3251   51.7784  -24.4801 Cl  0  0  0  0  0  0  0  0  0  0  0  0
  -24.8335   51.1632  -23.5479 C   0  0  0  0  0  0  0  0  0  0  0  0
  2  1  1  6
  2  3  1  0
  3  4  1  6
  4  5  2  0
  4  6  1  0
  8  9  2  0
  7  9  1  0
  9 10  2  0
  7 11  2  0
 11 12  1  0
 12 13  2  0
 13 14  1  0
 14 15  2  0
 14 16  1  0
 17 16  1  1
 17 18  1  0
 18 19  1  0
 18 20  2  0
 13 21  1  0
  7 22  1  0
 21 22  2  0
  1 23  1  1
  9 23  1  1
 24 23  1  1
  3 25  1  0
 25 24  1  6
  6 26  2  0
 26 27  1  0
 27 28  1  0
 27 29  2  0
  5 29  1  0
M  END
$$$$
