7SUC_COM_a_604
     RDKit          3D

 13 12  0  0  0  0  0  0  0  0999 V2000
    7.6857    4.9610   -2.8320 C   0  0  0  0  0  0  0  0  0  0  0  0
    8.3741    5.8630   -3.8507 C   0  0  0  0  0  0  0  0  0  0  0  0
    8.9103    4.2860   -1.6700 S   0  0  0  0  0  0  0  0  0  0  0  0
    9.9161    5.1487   -4.3975 S   0  0  1  0  0  6  0  0  0  0  0  0
   10.0621    5.3675   -5.8765 O   0  0  0  0  0  0  0  0  0  0  0  0
   11.0671    5.8089   -3.6916 O   0  0  0  0  0  0  0  0  0  0  0  0
    9.9285    3.4956   -4.0822 O   0  0  0  0  0  0  0  0  0  0  0  0
    6.9323    5.5416   -2.2582 H   0  0  0  0  0  0  0  0  0  0  0  0
    7.1810    4.1177   -3.3506 H   0  0  0  0  0  0  0  0  0  0  0  0
    7.7135    6.0038   -4.7324 H   0  0  0  0  0  0  0  0  0  0  0  0
    8.5819    6.8550   -3.3942 H   0  0  0  0  0  0  0  0  0  0  0  0
    7.9336    3.5676   -0.9565 H   0  0  0  0  0  0  0  0  0  0  0  0
   10.1793    3.4140   -3.1279 H   0  0  0  0  0  0  0  0  0  0  0  0
  1  2  1  0
  1  3  1  0
  2  4  1  0
  4  5  2  0
  4  6  2  0
  4  7  1  6
  1  8  1  0
  1  9  1  0
  2 10  1  0
  2 11  1  0
  3 12  1  0
  7 13  1  0
M  END
