7MYU_ZR7_A_401
     RDKit          3D

 35 39  0  0  0  0  0  0  0  0999 V2000
   52.0303   50.9969   80.5353 O   0  0  0  0  0  0  0  0  0  0  0  0
   37.5434   43.4862   81.9096 C   0  0  0  0  0  0  0  0  0  0  0  0
   39.5143   44.7679   81.8833 C   0  0  0  0  0  0  0  0  0  0  0  0
   43.1109   47.3341   79.7444 C   0  0  0  0  0  0  0  0  0  0  0  0
   40.8241   44.8784   81.4494 N   0  0  0  0  0  0  0  0  0  0  0  0
   41.9369   45.2268   82.3266 C   0  0  0  0  0  0  0  0  0  0  0  0
   41.2615   44.5733   80.0804 C   0  0  0  0  0  0  0  0  0  0  0  0
   42.7693   44.4624   80.2014 C   0  0  2  0  0  0  0  0  0  0  0  0
   43.1186   45.4745   81.3184 C   0  0  2  0  0  0  0  0  0  0  0  0
   49.8384   45.4075   81.6964 O   0  0  0  0  0  0  0  0  0  0  0  0
   49.2253   46.4129   81.4242 C   0  0  0  0  0  0  0  0  0  0  0  0
   49.9518   47.6486   81.1678 C   0  0  0  0  0  0  0  0  0  0  0  0
   49.3551   48.6204   80.4321 N   0  0  0  0  0  0  0  0  0  0  0  0
   50.0172   49.7305   80.2070 C   0  0  0  0  0  0  0  0  0  0  0  0
   51.3498   49.8688   80.7513 C   0  0  0  0  0  0  0  0  0  0  0  0
   51.3381   52.2473   80.5574 C   0  0  0  0  0  0  0  0  0  0  0  0
   51.9374   48.9052   81.4731 N   0  0  0  0  0  0  0  0  0  0  0  0
   51.2420   47.7801   81.6897 C   0  0  0  0  0  0  0  0  0  0  0  0
   47.8728   46.4758   81.2735 N   0  0  0  0  0  0  0  0  0  0  0  0
   46.9105   45.7051   81.9073 C   0  0  0  0  0  0  0  0  0  0  0  0
   47.1599   44.6012   82.7745 C   0  0  0  0  0  0  0  0  0  0  0  0
   46.0938   43.7997   83.1964 C   0  0  0  0  0  0  0  0  0  0  0  0
   44.8210   44.1027   82.7516 C   0  0  0  0  0  0  0  0  0  0  0  0
   43.8672   43.3187   83.1696 F   0  0  0  0  0  0  0  0  0  0  0  0
   45.6196   46.0121   81.4908 C   0  0  0  0  0  0  0  0  0  0  0  0
   44.5336   45.2239   81.8750 C   0  0  0  0  0  0  0  0  0  0  0  0
   43.0246   46.8863   80.9618 N   0  0  0  0  0  0  0  0  0  0  0  0
   43.0119   48.6904   79.5120 N   0  0  0  0  0  0  0  0  0  0  0  0
   43.3515   46.3718   78.2329 S   0  0  0  0  0  0  0  0  0  0  0  0
   43.5444   44.6998   78.9042 C   0  0  0  0  0  0  0  0  0  0  0  0
   39.0013   45.7931   82.7037 N   0  0  0  0  0  0  0  0  0  0  0  0
   37.7155   45.6299   83.0972 C   0  0  0  0  0  0  0  0  0  0  0  0
   36.9611   44.4808   82.7035 C   0  0  0  0  0  0  0  0  0  0  0  0
   35.7364   44.3514   83.0257 F   0  0  0  0  0  0  0  0  0  0  0  0
   38.8079   43.6087   81.4885 N   0  0  0  0  0  0  0  0  0  0  0  0
  3  5  1  0
  5  6  1  0
  5  7  1  0
  8  7  1  6
  6  9  1  0
  8  9  1  0
 10 11  2  0
 11 12  1  0
 12 13  2  0
 13 14  1  0
 14 15  2  0
  1 15  1  0
  1 16  1  0
 15 17  1  0
 12 18  1  0
 17 18  2  0
 11 19  1  0
 19 20  1  0
 20 21  2  0
 21 22  1  0
 22 23  2  0
 23 24  1  0
 20 25  1  0
 23 26  1  0
 25 26  2  0
  9 26  1  1
  9 27  1  0
  4 27  2  0
  4 28  1  0
  4 29  1  0
  8 30  1  0
 29 30  1  0
  3 31  1  0
 31 32  2  0
 32 33  1  0
  2 33  2  0
 33 34  1  0
  3 35  2  0
  2 35  1  0
M  END
