8BOM_QU6_A_1001
     RDKit          3D

 35 39  0  0  0  0  0  0  0  0999 V2000
  -82.8760  -20.2090   85.0290 N   0  0  0  0  0  0  0  0  0  0  0  0
  -78.5920  -20.9790   89.3770 N   0  0  0  0  0  0  0  0  0  0  0  0
  -85.0340  -19.8540   87.9760 C   0  0  0  0  0  0  0  0  0  0  0  0
  -85.6020  -18.6530   88.6610 C   0  0  0  0  0  0  0  0  0  0  0  0
  -87.3740  -17.8850   90.2000 C   0  0  0  0  0  0  0  0  0  0  0  0
  -87.5860  -16.6700   89.5520 C   0  0  0  0  0  0  0  0  0  0  0  0
  -88.3890  -15.7050   90.1450 C   0  0  0  0  0  0  0  0  0  0  0  0
  -88.9780  -15.9460   91.3800 C   0  0  0  0  0  0  0  0  0  0  0  0
  -84.2220  -19.5390   86.8950 C   0  0  0  0  0  0  0  0  0  0  0  0
  -81.6060  -19.7270   84.9650 C   0  0  0  0  0  0  0  0  0  0  0  0
  -78.7050  -20.1580   87.1100 C   0  0  0  0  0  0  0  0  0  0  0  0
  -77.2580  -20.9260   89.3020 C   0  0  0  0  0  0  0  0  0  0  0  0
  -79.2850  -20.6010   88.2950 C   0  0  0  0  0  0  0  0  0  0  0  0
  -79.6520  -19.0370   83.8090 C   0  0  0  0  0  0  0  0  0  0  0  0
  -81.3900  -18.8300   82.4440 C   0  0  0  0  0  0  0  0  0  0  0  0
  -86.5380  -18.8600   89.6070 N   0  0  0  0  0  0  0  0  0  0  0  0
  -83.5970  -22.9630   85.3330 C   0  0  0  0  0  0  0  0  0  0  0  0
  -88.5320  -14.5250   89.4460 O   0  0  0  0  0  0  0  0  0  0  0  0
  -84.0820  -21.8690   86.2550 C   0  0  0  0  0  0  0  0  0  0  0  0
  -88.8160  -17.1830   91.9800 C   0  0  0  0  0  0  0  0  0  0  0  0
  -88.0540  -18.1660   91.3740 C   0  0  0  0  0  0  0  0  0  0  0  0
  -83.7800  -20.5140   86.0040 C   0  0  0  0  0  0  0  0  0  0  0  0
  -79.5150  -19.7610   85.9390 C   0  0  0  0  0  0  0  0  0  0  0  0
  -77.3150  -20.1180   87.0720 C   0  0  0  0  0  0  0  0  0  0  0  0
  -76.5800  -20.5050   88.1770 C   0  0  0  0  0  0  0  0  0  0  0  0
  -84.8280  -22.1750   87.3950 C   0  0  0  0  0  0  0  0  0  0  0  0
  -81.0300  -19.2560   83.7430 C   0  0  0  0  0  0  0  0  0  0  0  0
  -77.9410  -18.1130   82.1970 C   0  0  0  0  0  0  0  0  0  0  0  0
  -85.3170  -21.1870   88.2330 C   0  0  0  0  0  0  0  0  0  0  0  0
  -89.1380  -13.4230   90.1410 C   0  0  0  0  0  0  0  0  0  0  0  0
  -80.8440  -19.9600   86.0390 N   0  0  0  0  0  0  0  0  0  0  0  0
  -78.8700  -19.2760   84.8660 N   0  0  0  0  0  0  0  0  0  0  0  0
  -80.3450  -18.3790   81.7800 N   0  0  0  0  0  0  0  0  0  0  0  0
  -79.2760  -18.5120   82.6200 N   0  0  0  0  0  0  0  0  0  0  0  0
  -85.1860  -17.5320   88.3860 O   0  0  0  0  0  0  0  0  0  0  0  0
  3  4  1  0
  5  6  2  0
  6  7  1  0
  7  8  2  0
  3  9  2  0
  1 10  1  0
  2 12  2  0
 11 13  2  0
  2 13  1  0
  4 16  1  0
  5 16  1  0
  7 18  1  0
 17 19  1  0
  8 20  1  0
  5 21  1  0
 20 21  2  0
  1 22  1  0
 19 22  2  0
  9 22  1  0
 11 23  1  0
 11 24  1  0
 24 25  2  0
 12 25  1  0
 19 26  1  0
 15 27  1  0
 14 27  2  0
 10 27  1  0
 26 29  2  0
  3 29  1  0
 18 30  1  0
 10 31  2  0
 23 31  1  0
 14 32  1  0
 23 32  2  0
 15 33  2  0
 33 34  1  0
 28 34  1  0
 14 34  1  0
  4 35  2  0
M  END
$$$$
