7JUD_MMA_B_802
     RDKit          3D

 27 27  0  0  0  0  0  0  0  0999 V2000
  -12.5251  -11.6682    5.5278 C   0  0  1  0  0  0  0  0  0  0  0  0
  -12.0700  -10.2600    5.1051 C   0  0  2  0  0  0  0  0  0  0  0  0
  -12.6984   -9.8462    3.7544 C   0  0  2  0  0  0  0  0  0  0  0  0
  -13.1644  -11.0604    2.9144 C   0  0  1  0  0  0  0  0  0  0  0  0
  -12.3384  -12.3480    3.2150 C   0  0  1  0  0  0  0  0  0  0  0  0
  -10.9766  -12.3324    2.5024 C   0  0  1  0  0  0  0  0  0  0  0  0
  -14.3375  -10.4942    6.3789 C   0  0  1  0  0  0  0  0  0  0  0  0
  -13.9260  -11.6841    5.7417 O   0  0  0  0  0  0  0  0  0  0  0  0
  -10.6658  -10.2249    5.0277 O   0  0  0  0  0  0  0  0  0  0  0  0
  -11.7870   -9.0653    3.0201 O   0  0  0  0  0  0  0  0  0  0  0  0
  -14.5278  -11.3020    3.1611 O   0  0  0  0  0  0  0  0  0  0  0  0
  -12.1363  -12.6663    4.5923 O   0  0  0  0  0  0  0  0  0  0  0  0
  -10.2303  -11.2174    2.9075 O   0  0  0  0  0  0  0  0  0  0  0  0
  -11.9964  -11.8823    6.4864 H   0  0  0  0  0  0  0  0  0  0  0  0
  -12.4074   -9.5301    5.8794 H   0  0  0  0  0  0  0  0  0  0  0  0
  -13.5937   -9.2187    3.9841 H   0  0  0  0  0  0  0  0  0  0  0  0
  -13.0578  -10.7995    1.8348 H   0  0  0  0  0  0  0  0  0  0  0  0
  -12.8995  -13.2030    2.7771 H   0  0  0  0  0  0  0  0  0  0  0  0
  -10.4111  -13.2627    2.7223 H   0  0  0  0  0  0  0  0  0  0  0  0
  -11.1436  -12.2786    1.4031 H   0  0  0  0  0  0  0  0  0  0  0  0
  -15.4048  -10.5980    6.6626 H   0  0  0  0  0  0  0  0  0  0  0  0
  -13.7607  -10.3114    7.3120 H   0  0  0  0  0  0  0  0  0  0  0  0
  -14.2570   -9.6223    5.6930 H   0  0  0  0  0  0  0  0  0  0  0  0
  -10.3187  -10.7435    5.8001 H   0  0  0  0  0  0  0  0  0  0  0  0
  -12.1929   -8.9065    2.1278 H   0  0  0  0  0  0  0  0  0  0  0  0
  -14.7352  -12.2039    2.8007 H   0  0  0  0  0  0  0  0  0  0  0  0
   -9.3459  -11.5661    3.1926 H   0  0  0  0  0  0  0  0  0  0  0  0
  1  2  1  0
  2  3  1  0
  3  4  1  0
  4  5  1  0
  5  6  1  0
  1  8  1  0
  7  8  1  0
  2  9  1  0
  3 10  1  0
  4 11  1  0
  1 12  1  0
  5 12  1  0
  6 13  1  0
  1 14  1  1
  2 15  1  1
  3 16  1  1
  4 17  1  6
  5 18  1  6
  6 19  1  6
  6 20  1  0
  7 21  1  1
  7 22  1  0
  7 23  1  0
  9 24  1  0
 10 25  1  0
 11 26  1  0
 13 27  1  0
M  END
