8B8H_OJQ_A_401
     RDKit          3D

 37 38  0  0  0  0  0  0  0  0999 V2000
   -1.7548    0.7924   -0.9207 C   0  0  0  0  0  0  0  0  0  0  0  0
   -0.9765    0.2706    0.1361 C   0  0  0  0  0  0  0  0  0  0  0  0
   -1.5855   -0.5994    1.0783 C   0  0  0  0  0  0  0  0  0  0  0  0
   -2.9487   -0.8969    0.9373 C   0  0  0  0  0  0  0  0  0  0  0  0
   -3.1188    0.4495   -1.0130 C   0  0  0  0  0  0  0  0  0  0  0  0
    1.2759   -0.1804   -0.7479 N   0  0  0  0  0  4  0  0  0  0  0  0
    2.6412    0.2674   -0.7792 C   0  0  0  0  0  0  0  0  0  0  0  0
    3.6805   -0.1047    0.0457 C   0  0  0  0  0  0  0  0  0  0  0  0
    3.6529   -1.0711    1.0462 O   0  0  0  0  0  0  0  0  0  0  0  0
    3.1638    1.2724   -1.5634 C   0  0  0  0  0  0  0  0  0  0  0  0
    4.4233    1.4362   -1.2172 O   0  0  0  0  0  0  0  0  0  0  0  0
    4.7688    0.6265   -0.2541 N   0  0  0  0  0  0  0  0  0  0  0  0
   -3.9917    0.9738   -2.1130 C   0  0  0  0  0  0  0  0  0  0  0  0
    0.4984    0.6306    0.2014 C   0  0  0  0  0  0  0  0  0  0  0  0
   -0.8355   -1.2043    2.2471 C   0  0  0  0  0  0  0  0  0  0  0  0
   -3.6675   -0.3772   -0.0870 N   0  0  0  0  0  0  0  0  0  0  0  0
   -1.1575    1.6421   -1.8581 O   0  0  0  0  0  0  0  0  0  0  0  0
   -1.3253   -3.4555    0.0726 O   0  0  0  0  0  0  0  0  0  0  0  0
    1.1211   -4.4230    0.8846 O   0  0  0  0  0  0  0  0  0  0  0  0
   -0.8876   -4.2324    2.5357 O   0  0  0  0  0  0  0  0  0  0  0  0
    0.2727   -1.9652    1.8193 O   0  0  0  0  0  0  0  0  0  0  0  0
   -0.2346   -3.5324    1.3648 P   0  0  0  0  0  5  0  0  0  0  0  0
   -3.4452   -1.5522    1.6414 H   0  0  0  0  0  0  0  0  0  0  0  0
    0.8762   -0.0902   -1.7108 H   0  0  0  0  0  0  0  0  0  0  0  0
    1.2451   -1.1886   -0.4744 H   0  0  0  0  0  0  0  0  0  0  0  0
    2.8170   -1.6052    1.2423 H   0  0  0  0  0  0  0  0  0  0  0  0
    2.6475    1.8410   -2.3253 H   0  0  0  0  0  0  0  0  0  0  0  0
   -3.5971    0.6463   -3.0978 H   0  0  0  0  0  0  0  0  0  0  0  0
   -4.0270    2.0828   -2.0722 H   0  0  0  0  0  0  0  0  0  0  0  0
   -5.0279    0.5878   -2.0067 H   0  0  0  0  0  0  0  0  0  0  0  0
    0.6139    1.7129   -0.0358 H   0  0  0  0  0  0  0  0  0  0  0  0
    0.9036    0.5077    1.2276 H   0  0  0  0  0  0  0  0  0  0  0  0
   -0.4600   -0.3732    2.8793 H   0  0  0  0  0  0  0  0  0  0  0  0
   -1.5057   -1.7821    2.9240 H   0  0  0  0  0  0  0  0  0  0  0  0
   -1.6587    2.0471   -2.6382 H   0  0  0  0  0  0  0  0  0  0  0  0
   -0.8347   -2.9788   -0.6436 H   0  0  0  0  0  0  0  0  0  0  0  0
    1.5439   -3.8751    0.1761 H   0  0  0  0  0  0  0  0  0  0  0  0
  1  2  2  0
  2  3  1  0
  3  4  2  0
  1  5  1  0
  6  7  1  0
  7  8  1  0
  8  9  1  0
  7 10  2  0
 10 11  1  0
  8 12  2  0
 11 12  1  0
  5 13  1  0
  6 14  1  0
  2 14  1  0
  3 15  1  0
  5 16  2  0
  4 16  1  0
  1 17  1  0
 15 21  1  0
 20 22  2  0
 21 22  1  0
 18 22  1  0
 19 22  1  0
  4 23  1  0
  6 24  1  0
  6 25  1  0
  9 26  1  0
 10 27  1  0
 13 28  1  0
 13 29  1  0
 13 30  1  0
 14 31  1  0
 14 32  1  0
 15 33  1  0
 15 34  1  0
 17 35  1  0
 18 36  1  0
 19 37  1  0
M  CHG  1   6   1
M  END
