7ECR_SIN_B_505
     RDKit          3D

  8  7  0  0  0  0  0  0  0  0999 V2000
  -46.2396  -18.3896  -46.2261 C   0  0  0  0  0  0  0  0  0  0  0  0
  -47.2053  -17.6711  -46.0040 O   0  0  0  0  0  0  0  0  0  0  0  0
  -46.0720  -19.4263  -45.5794 O   0  0  0  0  0  0  0  0  0  0  0  0
  -45.3111  -18.0801  -47.4069 C   0  0  0  0  0  0  0  0  0  0  0  0
  -43.9724  -17.8793  -46.8306 C   0  0  0  0  0  0  0  0  0  0  0  0
  -42.8293  -17.5989  -47.7739 C   0  0  0  0  0  0  0  0  0  0  0  0
  -42.2303  -18.5811  -48.3167 O   0  0  0  0  0  0  0  0  0  0  0  0
  -42.5129  -16.3688  -47.8200 O   0  0  0  0  0  0  0  0  0  0  0  0
  1  2  2  0
  1  3  1  0
  1  4  1  0
  4  5  1  0
  5  6  1  0
  6  7  2  0
  6  8  1  0
M  END
