7ZCC_OGA_D_402
     RDKit          3D

 15 14  0  0  0  0  0  0  0  0999 V2000
   32.0800   -3.4154   37.9882 C   0  0  0  0  0  0  0  0  0  0  0  0
   33.0031   -4.0716   37.0505 C   0  0  0  0  0  0  0  0  0  0  0  0
   33.6735   -6.1590   35.7973 C   0  0  1  0  0  0  0  0  0  0  0  0
   33.0400   -7.1318   34.8539 C   0  0  0  0  0  0  0  0  0  0  0  0
   31.7053   -4.0076   39.0354 O   0  0  0  0  0  0  0  0  0  0  0  0
   31.6163   -2.1314   37.7179 O   0  0  0  0  0  0  0  0  0  0  0  0
   34.1087   -3.5235   36.7917 O   0  0  0  0  0  0  0  0  0  0  0  0
   32.5905   -6.6984   33.6107 O   0  0  0  0  0  0  0  0  0  0  0  0
   32.6581   -5.3204   36.4330 N   0  0  0  0  0  0  0  0  0  0  0  0
   32.8744   -8.3316   35.2013 O   0  0  0  0  0  0  0  0  0  0  0  0
   34.2396   -6.7132   36.5772 H   0  0  0  0  0  0  0  0  0  0  0  0
   34.3852   -5.5173   35.2349 H   0  0  0  0  0  0  0  0  0  0  0  0
   31.9612   -1.6115   36.9196 H   0  0  0  0  0  0  0  0  0  0  0  0
   33.2253   -6.6288   32.8243 H   0  0  0  0  0  0  0  0  0  0  0  0
   31.6600   -5.6326   36.4405 H   0  0  0  0  0  0  0  0  0  0  0  0
  1  2  1  0
  3  4  1  0
  1  5  2  0
  1  6  1  0
  2  7  2  0
  4  8  1  0
  2  9  1  0
  3  9  1  0
  4 10  2  0
  3 11  1  1
  3 12  1  0
  6 13  1  0
  8 14  1  0
  9 15  1  0
M  END
