8DKO_TFB_A_2002
     RDKit          3D

  8  8  0  0  0  0  0  0  0  0999 V2000
   18.9528   12.7999   34.5859 O   0  0  0  0  0  0  0  0  0  0  0  0
   19.3126   13.4227   35.8090 C   0  0  2  0  0  0  0  0  0  0  0  0
   18.0005   13.6148   36.5735 C   0  0  0  0  0  0  0  0  0  0  0  0
   17.0140   12.8686   36.3149 O   0  0  0  0  0  0  0  0  0  0  0  0
   19.9460   14.7558   35.5631 C   0  0  0  0  0  0  0  0  0  0  0  0
   19.5918   15.0912   34.1426 C   0  0  0  0  0  0  0  0  0  0  0  0
   19.0558   13.7891   33.5421 C   0  0  0  0  0  0  0  0  0  0  0  0
   17.9063   14.5253   37.4342 O   0  0  0  0  0  0  0  0  0  0  0  0
  1  2  1  0
  2  3  1  1
  3  4  1  0
  2  5  1  0
  5  6  1  0
  1  7  1  0
  6  7  1  0
  3  8  2  0
M  END
