8CNH_V6U_A_501
     RDKit          3D

 25 27  0  0  0  0  0  0  0  0999 V2000
  -35.0893   -1.3080   -3.8370 C   0  0  0  0  0  0  0  0  0  0  0  0
  -36.2548   -0.5619   -3.2849 C   0  0  0  0  0  0  0  0  0  0  0  0
  -36.0120    0.7216   -2.5785 C   0  0  0  0  0  0  0  0  0  0  0  0
  -34.6130    1.2415   -2.4856 C   0  0  0  0  0  0  0  0  0  0  0  0
  -33.4760    0.4903   -3.0528 C   0  0  0  0  0  0  0  0  0  0  0  0
  -33.6899   -0.7867   -3.7279 C   0  0  0  0  0  0  0  0  0  0  0  0
  -37.2186   -5.4516   -0.7953 C   0  0  0  0  0  0  0  0  0  0  0  0
  -41.2319   -0.4000    0.8818 C   0  0  0  0  0  0  0  0  0  0  0  0
  -40.3985   -1.4252    0.4567 C   0  0  0  0  0  0  0  0  0  0  0  0
  -39.7408   -1.2434   -0.7889 C   0  0  0  0  0  0  0  0  0  0  0  0
  -40.8504    0.9244   -1.0179 C   0  0  0  0  0  0  0  0  0  0  0  0
  -38.7584   -2.2829   -1.2451 C   0  0  0  0  0  0  0  0  0  0  0  0
  -37.8462   -2.2337   -2.3001 C   0  0  0  0  0  0  0  0  0  0  0  0
  -37.1888   -3.4220   -2.2750 C   0  0  0  0  0  0  0  0  0  0  0  0
  -37.6574   -1.1092   -3.3455 C   0  0  0  0  0  0  0  0  0  0  0  0
  -35.2376   -2.5740   -4.6039 C   0  0  0  0  0  0  0  0  0  0  0  0
  -34.4782   -3.9796   -6.3776 C   0  0  0  0  0  0  0  0  0  0  0  0
  -41.5226    0.7426    0.1964 N   0  0  0  0  0  0  0  0  0  0  0  0
  -39.9584   -0.0702   -1.4968 N   0  0  0  0  0  0  0  0  0  0  0  0
  -37.6775   -4.1389   -1.2382 N   0  0  0  0  0  0  0  0  0  0  0  0
  -38.6351   -3.4102   -0.5851 N   0  0  0  0  0  0  0  0  0  0  0  0
  -41.0993    2.1330   -1.6954 N   0  0  0  0  0  0  0  0  0  0  0  0
  -34.2849   -2.8085   -5.6228 O   0  0  0  0  0  0  0  0  0  0  0  0
  -36.1225   -3.2671   -4.3808 O   0  0  0  0  0  0  0  0  0  0  0  0
  -42.1094   -0.6889    2.3650 Cl  0  0  0  0  0  0  0  0  0  0  0  0
  1  2  2  0
  2  3  1  0
  3  4  2  0
  4  5  1  0
  1  6  1  0
  5  6  2  0
  8  9  2  0
  9 10  1  0
 10 12  1  0
 12 13  1  0
 13 14  2  0
 13 15  1  0
  2 15  1  0
  1 16  1  0
 11 18  2  0
  8 18  1  0
 11 19  1  0
 10 19  2  0
 14 20  1  0
  7 20  1  0
 12 21  2  0
 20 21  1  0
 11 22  1  0
 17 23  1  0
 16 23  1  0
 16 24  2  0
  8 25  1  0
M  END
