
     RDKit          3D

 23 25  0  0  0  0  0  0  0  0999 V2000
  -24.6673  -20.0363   -3.4567 C   0  0  0  0  0  0  0  0  0  0  0  0
  -24.7242  -22.5052   -3.4483 C   0  0  0  0  0  0  0  0  0  0  0  0
  -24.2760  -23.6163   -2.8261 C   0  0  0  0  0  0  0  0  0  0  0  0
  -23.2697  -22.6048   -0.7712 C   0  0  0  0  0  0  0  0  0  0  0  0
  -23.0296  -25.1203    0.3872 C   0  0  0  0  0  0  0  0  0  0  0  0
  -25.1669  -22.7489   -4.8571 C   0  0  0  0  0  0  0  0  0  0  0  0
  -22.4160  -19.3570   -7.0363 C   0  0  0  0  0  0  0  0  0  0  0  0
  -21.6881  -23.1462    3.1195 C   0  0  0  0  0  0  0  0  0  0  0  0
  -25.8292  -23.7469   -5.1493 O   0  0  0  0  0  0  0  0  0  0  0  0
  -24.7589  -21.9249   -5.8552 N   0  0  0  0  0  0  0  0  0  0  0  0
  -23.9589  -20.7832   -5.7927 C   0  0  0  0  0  0  0  0  0  0  0  0
  -23.8457  -19.9405   -4.6875 C   0  0  0  0  0  0  0  0  0  0  0  0
  -23.2601  -20.4664   -6.9716 C   0  0  0  0  0  0  0  0  0  0  0  0
  -22.2764  -18.5336   -5.9281 C   0  0  0  0  0  0  0  0  0  0  0  0
  -22.9959  -18.8170   -4.7678 C   0  0  0  0  0  0  0  0  0  0  0  0
  -24.9275  -21.2686   -2.8602 N   0  0  0  0  0  0  0  0  0  0  0  0
  -25.5532  -21.2095   -1.5389 C   0  0  0  0  0  0  0  0  0  0  0  0
  -25.0056  -18.9722   -2.9312 O   0  0  0  0  0  0  0  0  0  0  0  0
  -23.7189  -23.7296   -1.4724 C   0  0  0  0  0  0  0  0  0  0  0  0
  -23.5807  -24.9922   -0.8906 C   0  0  0  0  0  0  0  0  0  0  0  0
  -22.5989  -23.9959    1.0950 C   0  0  0  0  0  0  0  0  0  0  0  0
  -22.0826  -24.2629    2.3326 O   0  0  0  0  0  0  0  0  0  0  0  0
  -22.7183  -22.7360    0.5091 C   0  0  0  0  0  0  0  0  0  0  0  0
  2  3  2  0
  2  6  1  0
  6  9  2  0
  6 10  1  0
 10 11  1  0
 11 12  4  0
  1 12  1  0
  7 13  4  0
 11 13  4  0
  7 14  4  0
 14 15  4  0
 12 15  4  0
  2 16  1  0
  1 16  1  0
 16 17  1  0
  1 18  2  0
  3 19  1  0
  4 19  4  0
 19 20  4  0
  5 20  4  0
  5 21  4  0
 21 22  1  0
  8 22  1  0
  4 23  4  0
 21 23  4  0
M  END
