7NLV_UJE_CCC_201
     RDKit          3D

 21 23  0  0  0  0  0  0  0  0999 V2000
  -10.3010   -8.2240   20.9540 O   0  0  0  0  0  0  0  0  0  0  0  0
   -2.8040  -13.9720   20.4990 O   0  0  0  0  0  0  0  0  0  0  0  0
  -10.3810   -8.2410   19.7290 C   0  0  0  0  0  0  0  0  0  0  0  0
  -10.1510   -9.5260   18.9620 C   0  0  0  0  0  0  0  0  0  0  0  0
   -9.1320  -10.4300   19.5800 C   0  0  0  0  0  0  0  0  0  0  0  0
   -7.7250   -9.8640   19.4530 C   0  0  0  0  0  0  0  0  0  0  0  0
   -6.6230  -10.6960   20.0950 C   0  0  0  0  0  0  0  0  0  0  0  0
   -5.2210  -10.1400   19.8720 C   0  0  2  0  0  0  0  0  0  0  0  0
   -4.5480  -10.4260   18.1940 S   0  0  0  0  0  0  0  0  0  0  0  0
   -2.9790   -9.8110   18.8480 C   0  0  0  0  0  0  0  0  0  0  0  0
   -2.7800  -10.4700   20.2110 C   0  0  2  0  0  0  0  0  0  0  0  0
   -2.2290  -11.7940   20.0670 N   0  0  0  0  0  0  0  0  0  0  0  0
   -3.0710  -12.7560   20.4800 C   0  0  0  0  0  0  0  0  0  0  0  0
   -4.1970  -12.1590   20.9380 N   0  0  0  0  0  0  0  0  0  0  0  0
   -4.1540  -10.7200   20.8400 C   0  0  2  0  0  0  0  0  0  0  0  0
  -10.7080   -7.1490   19.0180 N   0  0  0  0  0  0  0  0  0  0  0  0
  -11.0730   -5.8920   19.6580 C   0  0  1  0  0  0  0  0  0  0  0  0
   -9.9940   -4.8280   19.6190 C   0  0  0  0  0  0  0  0  0  0  0  0
  -10.7520   -3.5440   19.8860 C   0  0  0  0  0  0  0  0  0  0  0  0
  -12.1700   -3.8520   19.6800 N   0  0  0  0  0  0  0  0  0  0  0  0
  -12.2470   -5.1700   19.0320 C   0  0  0  0  0  0  0  0  0  0  0  0
  1  3  2  0
  3  4  1  0
  4  5  1  0
  5  6  1  0
  6  7  1  0
  8  7  1  6
  8  9  1  0
  9 10  1  0
 11 10  1  6
 11 12  1  0
 12 13  1  0
  2 13  2  0
 13 14  1  0
 11 15  1  0
 15 14  1  6
  8 15  1  0
  3 16  1  0
 17 16  1  6
 17 18  1  0
 18 19  1  0
 19 20  1  0
 17 21  1  0
 20 21  1  0
M  END
$$$$
