1SJ0_E4D_A_600
     RDKit          3D

 33 37  0  0  0  0  0  0  0  0999 V2000
   27.7039  -11.5043   14.5458 C   0  0  2  0  0  0  0  0  0  0  0  0
   29.1505  -11.7559   14.7223 C   0  0  1  0  0  0  0  0  0  0  0  0
   29.6418  -12.0710   13.3923 O   0  0  0  0  0  0  0  0  0  0  0  0
   29.6768  -11.0908   12.4050 C   0  0  0  0  0  0  0  0  0  0  0  0
   30.6041  -11.1358   11.3575 C   0  0  0  0  0  0  0  0  0  0  0  0
   30.6417  -10.1662   10.3781 C   0  0  0  0  0  0  0  0  0  0  0  0
   29.7590   -9.1066   10.3945 C   0  0  0  0  0  0  0  0  0  0  0  0
   29.7770   -8.1206    9.4225 O   0  0  0  0  0  0  0  0  0  0  0  0
   28.8450   -9.0670   11.4313 C   0  0  0  0  0  0  0  0  0  0  0  0
   28.7870  -10.0090   12.4078 C   0  0  0  0  0  0  0  0  0  0  0  0
   27.5518   -9.8969   13.7384 S   0  0  0  0  0  0  0  0  0  0  0  0
   26.8196  -11.7223   15.6839 C   0  0  0  0  0  0  0  0  0  0  0  0
   27.1967  -12.6737   16.6211 C   0  0  0  0  0  0  0  0  0  0  0  0
   26.4165  -12.9680   17.7205 C   0  0  0  0  0  0  0  0  0  0  0  0
   25.2131  -12.3186   17.9347 C   0  0  0  0  0  0  0  0  0  0  0  0
   24.4295  -12.6153   19.0406 O   0  0  0  0  0  0  0  0  0  0  0  0
   24.8185  -11.3683   17.0143 C   0  0  0  0  0  0  0  0  0  0  0  0
   25.6190  -11.0911   15.9190 C   0  0  0  0  0  0  0  0  0  0  0  0
   30.0062  -10.6455   15.1635 C   0  0  0  0  0  0  0  0  0  0  0  0
   29.8567   -9.3294   14.9157 C   0  0  0  0  0  0  0  0  0  0  0  0
   30.7431   -8.3901   15.3980 C   0  0  0  0  0  0  0  0  0  0  0  0
   31.8513   -8.7388   16.1729 C   0  0  0  0  0  0  0  0  0  0  0  0
   32.0031  -10.0745   16.4235 C   0  0  0  0  0  0  0  0  0  0  0  0
   31.1196  -11.0140   15.9436 C   0  0  0  0  0  0  0  0  0  0  0  0
   32.6503   -7.7244   16.5857 O   0  0  0  0  0  0  0  0  0  0  0  0
   33.3848   -7.5615   17.7413 C   0  0  0  0  0  0  0  0  0  0  0  0
   34.8191   -7.2777   17.5205 C   0  0  0  0  0  0  0  0  0  0  0  0
   35.1398   -6.7823   16.2088 N   0  0  0  0  0  0  0  0  0  0  0  0
   34.3922   -5.5942   15.8611 C   0  0  0  0  0  0  0  0  0  0  0  0
   34.9497   -5.0200   14.5775 C   0  0  0  0  0  0  0  0  0  0  0  0
   36.3525   -4.5213   14.7597 C   0  0  0  0  0  0  0  0  0  0  0  0
   36.9413   -5.2471   15.9509 C   0  0  0  0  0  0  0  0  0  0  0  0
   36.5145   -6.7187   15.8739 C   0  0  0  0  0  0  0  0  0  0  0  0
  1  2  1  0
  2  3  1  0
  3  4  1  0
  4  5  2  0
  5  6  1  0
  6  7  2  0
  7  8  1  0
  7  9  1  0
  4 10  1  0
  9 10  2  0
  1 11  1  0
 10 11  1  0
  1 12  1  1
 12 13  2  0
 13 14  1  0
 14 15  2  0
 15 16  1  0
 15 17  1  0
 12 18  1  0
 17 18  2  0
  2 19  1  6
 19 20  2  0
 20 21  1  0
 21 22  2  0
 22 23  1  0
 19 24  1  0
 23 24  2  0
 22 25  1  0
 25 26  1  0
 26 27  1  0
 27 28  1  0
 28 29  1  0
 29 30  1  0
 30 31  1  0
 31 32  1  0
 28 33  1  0
 32 33  1  0
M  END
$$$$
