1SJ0_E4D_A_600
     RDKit          3D

 33 37  0  0  0  0  0  0  0  0999 V2000
   30.4318   -0.2967   27.6844 C   0  0  2  0  0  0  0  0  0  0  0  0
   30.9766    0.3487   26.4705 C   0  0  1  0  0  0  0  0  0  0  0  0
   32.1053    1.1347   26.9375 O   0  0  0  0  0  0  0  0  0  0  0  0
   33.2485    0.5053   27.4210 C   0  0  0  0  0  0  0  0  0  0  0  0
   34.5080    1.1112   27.3464 C   0  0  0  0  0  0  0  0  0  0  0  0
   35.6426    0.4903   27.8240 C   0  0  0  0  0  0  0  0  0  0  0  0
   35.5776   -0.7621   28.3981 C   0  0  0  0  0  0  0  0  0  0  0  0
   36.7027   -1.4060   28.8848 O   0  0  0  0  0  0  0  0  0  0  0  0
   34.3311   -1.3560   28.4694 C   0  0  0  0  0  0  0  0  0  0  0  0
   33.1987   -0.7661   28.0067 C   0  0  0  0  0  0  0  0  0  0  0  0
   31.5898   -1.6042   28.1408 S   0  0  0  0  0  0  0  0  0  0  0  0
   29.0234   -0.6723   27.6958 C   0  0  0  0  0  0  0  0  0  0  0  0
   28.7101   -1.9929   27.9848 C   0  0  0  0  0  0  0  0  0  0  0  0
   27.4084   -2.4507   27.9979 C   0  0  0  0  0  0  0  0  0  0  0  0
   26.3515   -1.6012   27.7200 C   0  0  0  0  0  0  0  0  0  0  0  0
   25.0430   -2.0626   27.7336 O   0  0  0  0  0  0  0  0  0  0  0  0
   26.6407   -0.2829   27.4295 C   0  0  0  0  0  0  0  0  0  0  0  0
   27.9553    0.1521   27.4225 C   0  0  0  0  0  0  0  0  0  0  0  0
   31.5484   -0.5048   25.4195 C   0  0  0  0  0  0  0  0  0  0  0  0
   32.6181   -1.3204   25.4991 C   0  0  0  0  0  0  0  0  0  0  0  0
   33.0461   -2.0708   24.4247 C   0  0  0  0  0  0  0  0  0  0  0  0
   32.4016   -2.0357   23.1863 C   0  0  0  0  0  0  0  0  0  0  0  0
   31.3165   -1.2073   23.1056 C   0  0  0  0  0  0  0  0  0  0  0  0
   30.8872   -0.4577   24.1768 C   0  0  0  0  0  0  0  0  0  0  0  0
   32.9193   -2.8172   22.2070 O   0  0  0  0  0  0  0  0  0  0  0  0
   33.7531   -3.9138   22.2677 C   0  0  0  0  0  0  0  0  0  0  0  0
   33.2059   -5.1349   21.6384 C   0  0  0  0  0  0  0  0  0  0  0  0
   32.5934   -4.9273   20.3536 N   0  0  0  0  0  0  0  0  0  0  0  0
   31.7068   -3.7850   20.3343 C   0  0  0  0  0  0  0  0  0  0  0  0
   31.2894   -3.5099   18.9066 C   0  0  0  0  0  0  0  0  0  0  0  0
   32.4531   -3.0758   18.0655 C   0  0  0  0  0  0  0  0  0  0  0  0
   33.7117   -3.5905   18.7314 C   0  0  0  0  0  0  0  0  0  0  0  0
   33.4432   -5.0184   19.2242 C   0  0  0  0  0  0  0  0  0  0  0  0
  1  2  1  0
  2  3  1  0
  3  4  1  0
  4  5  2  0
  5  6  1  0
  6  7  2  0
  7  8  1  0
  7  9  1  0
  4 10  1  0
  9 10  2  0
  1 11  1  0
 10 11  1  0
  1 12  1  6
 12 13  2  0
 13 14  1  0
 14 15  2  0
 15 16  1  0
 15 17  1  0
 12 18  1  0
 17 18  2  0
  2 19  1  6
 19 20  2  0
 20 21  1  0
 21 22  2  0
 22 23  1  0
 19 24  1  0
 23 24  2  0
 22 25  1  0
 25 26  1  0
 26 27  1  0
 27 28  1  0
 28 29  1  0
 29 30  1  0
 30 31  1  0
 31 32  1  0
 28 33  1  0
 32 33  1  0
M  END
$$$$
