1SJ0_E4D_A_600
     RDKit          3D

 33 37  0  0  0  0  0  0  0  0999 V2000
   28.3025   -9.4424   13.7364 C   0  0  2  0  0  0  0  0  0  0  0  0
   26.8390   -9.2755   13.8675 C   0  0  1  0  0  0  0  0  0  0  0  0
   26.4140   -8.6871   12.6094 O   0  0  0  0  0  0  0  0  0  0  0  0
   26.4773   -9.4249   11.4311 C   0  0  0  0  0  0  0  0  0  0  0  0
   25.6120   -9.1742   10.3598 C   0  0  0  0  0  0  0  0  0  0  0  0
   25.6718   -9.9035    9.1914 C   0  0  0  0  0  0  0  0  0  0  0  0
   26.5948  -10.9161    9.0335 C   0  0  0  0  0  0  0  0  0  0  0  0
   26.6743  -11.6625    7.8700 O   0  0  0  0  0  0  0  0  0  0  0  0
   27.4472  -11.1595   10.0946 C   0  0  0  0  0  0  0  0  0  0  0  0
   27.4091  -10.4560   11.2556 C   0  0  0  0  0  0  0  0  0  0  0  0
   28.5676  -10.8264   12.6081 S   0  0  0  0  0  0  0  0  0  0  0  0
   29.1089   -9.4580   14.9507 C   0  0  0  0  0  0  0  0  0  0  0  0
   28.5775   -8.8620   16.0857 C   0  0  0  0  0  0  0  0  0  0  0  0
   29.2722   -8.8058   17.2766 C   0  0  0  0  0  0  0  0  0  0  0  0
   30.5410   -9.3477   17.3878 C   0  0  0  0  0  0  0  0  0  0  0  0
   31.2385   -9.2907   18.5858 O   0  0  0  0  0  0  0  0  0  0  0  0
   31.0889   -9.9453   16.2703 C   0  0  0  0  0  0  0  0  0  0  0  0
   30.3717   -9.9888   15.0866 C   0  0  0  0  0  0  0  0  0  0  0  0
   26.0051  -10.4788   13.9967 C   0  0  0  0  0  0  0  0  0  0  0  0
   24.7704  -10.5837   14.5262 C   0  0  0  0  0  0  0  0  0  0  0  0
   24.0992  -11.7866   14.5816 C   0  0  0  0  0  0  0  0  0  0  0  0
   24.6524  -12.9726   14.0944 C   0  0  0  0  0  0  0  0  0  0  0  0
   25.9058  -12.8660   13.5579 C   0  0  0  0  0  0  0  0  0  0  0  0
   26.5776  -11.6664   13.5011 C   0  0  0  0  0  0  0  0  0  0  0  0
   23.8946  -14.0909   14.2084 O   0  0  0  0  0  0  0  0  0  0  0  0
   22.7150  -14.3219   14.8840 C   0  0  0  0  0  0  0  0  0  0  0  0
   21.6671  -14.9843   14.0780 C   0  0  0  0  0  0  0  0  0  0  0  0
   21.9564  -16.3462   13.7167 N   0  0  0  0  0  0  0  0  0  0  0  0
   23.2470  -16.4945   13.0812 C   0  0  0  0  0  0  0  0  0  0  0  0
   23.5614  -17.9677   12.9435 C   0  0  0  0  0  0  0  0  0  0  0  0
   23.7427  -18.6206   14.2816 C   0  0  0  0  0  0  0  0  0  0  0  0
   23.0125  -17.7739   15.3026 C   0  0  0  0  0  0  0  0  0  0  0  0
   21.6756  -17.3340   14.6919 C   0  0  0  0  0  0  0  0  0  0  0  0
  1  2  1  0
  2  3  1  0
  3  4  1  0
  4  5  2  0
  5  6  1  0
  6  7  2  0
  7  8  1  0
  7  9  1  0
  4 10  1  0
  9 10  2  0
  1 11  1  0
 10 11  1  0
  1 12  1  1
 12 13  2  0
 13 14  1  0
 14 15  2  0
 15 16  1  0
 15 17  1  0
 12 18  1  0
 17 18  2  0
  2 19  1  6
 19 20  2  0
 20 21  1  0
 21 22  2  0
 22 23  1  0
 19 24  1  0
 23 24  2  0
 22 25  1  0
 25 26  1  0
 26 27  1  0
 27 28  1  0
 28 29  1  0
 29 30  1  0
 30 31  1  0
 31 32  1  0
 28 33  1  0
 32 33  1  0
M  END
$$$$
