1SJ0_E4D_A_600
     RDKit          3D

 33 37  0  0  0  0  0  0  0  0999 V2000
   31.7184   -0.3285   28.2233 C   0  0  2  0  0  0  0  0  0  0  0  0
   31.7734   -1.7130   27.7062 C   0  0  1  0  0  0  0  0  0  0  0  0
   30.5054   -2.3080   28.0905 O   0  0  0  0  0  0  0  0  0  0  0  0
   29.3187   -1.8708   27.5095 C   0  0  0  0  0  0  0  0  0  0  0  0
   28.2072   -2.7125   27.3863 C   0  0  0  0  0  0  0  0  0  0  0  0
   27.0303   -2.2826   26.8109 C   0  0  0  0  0  0  0  0  0  0  0  0
   26.9038   -0.9957   26.3313 C   0  0  0  0  0  0  0  0  0  0  0  0
   25.7326   -0.5408   25.7494 O   0  0  0  0  0  0  0  0  0  0  0  0
   28.0046   -0.1684   26.4556 C   0  0  0  0  0  0  0  0  0  0  0  0
   29.1747   -0.5669   27.0181 C   0  0  0  0  0  0  0  0  0  0  0  0
   30.5806    0.5790   27.1554 S   0  0  0  0  0  0  0  0  0  0  0  0
   32.9738    0.3485   28.5237 C   0  0  0  0  0  0  0  0  0  0  0  0
   33.9264   -0.3513   29.2506 C   0  0  0  0  0  0  0  0  0  0  0  0
   35.1364    0.2104   29.6038 C   0  0  0  0  0  0  0  0  0  0  0  0
   35.4515    1.5090   29.2429 C   0  0  0  0  0  0  0  0  0  0  0  0
   36.6684    2.0728   29.5984 O   0  0  0  0  0  0  0  0  0  0  0  0
   34.5177    2.2236   28.5194 C   0  0  0  0  0  0  0  0  0  0  0  0
   33.3106    1.6376   28.1774 C   0  0  0  0  0  0  0  0  0  0  0  0
   31.8352   -1.9160   26.2520 C   0  0  0  0  0  0  0  0  0  0  0  0
   30.9419   -1.5328   25.3188 C   0  0  0  0  0  0  0  0  0  0  0  0
   31.1303   -1.7909   23.9777 C   0  0  0  0  0  0  0  0  0  0  0  0
   32.2558   -2.4646   23.4986 C   0  0  0  0  0  0  0  0  0  0  0  0
   33.1619   -2.8541   24.4461 C   0  0  0  0  0  0  0  0  0  0  0  0
   32.9762   -2.5972   25.7852 C   0  0  0  0  0  0  0  0  0  0  0  0
   32.3253   -2.6601   22.1590 O   0  0  0  0  0  0  0  0  0  0  0  0
   33.4091   -2.7666   21.3132 C   0  0  0  0  0  0  0  0  0  0  0  0
   33.5115   -4.0629   20.6091 C   0  0  0  0  0  0  0  0  0  0  0  0
   32.3757   -4.3952   19.7915 N   0  0  0  0  0  0  0  0  0  0  0  0
   31.4446   -3.2972   19.6541 C   0  0  0  0  0  0  0  0  0  0  0  0
   30.4115   -3.6558   18.6089 C   0  0  0  0  0  0  0  0  0  0  0  0
   31.0255   -3.7789   17.2459 C   0  0  0  0  0  0  0  0  0  0  0  0
   32.4993   -4.0688   17.4363 C   0  0  0  0  0  0  0  0  0  0  0  0
   32.6446   -5.0797   18.5811 C   0  0  0  0  0  0  0  0  0  0  0  0
  1  2  1  0
  2  3  1  0
  3  4  1  0
  4  5  2  0
  5  6  1  0
  6  7  2  0
  7  8  1  0
  7  9  1  0
  4 10  1  0
  9 10  2  0
  1 11  1  0
 10 11  1  0
  1 12  1  6
 12 13  2  0
 13 14  1  0
 14 15  2  0
 15 16  1  0
 15 17  1  0
 12 18  1  0
 17 18  2  0
  2 19  1  6
 19 20  2  0
 20 21  1  0
 21 22  2  0
 22 23  1  0
 19 24  1  0
 23 24  2  0
 22 25  1  0
 25 26  1  0
 26 27  1  0
 27 28  1  0
 28 29  1  0
 29 30  1  0
 30 31  1  0
 31 32  1  0
 28 33  1  0
 32 33  1  0
M  END
$$$$
