1SJ0_E4D_A_600
     RDKit          3D

 33 37  0  0  0  0  0  0  0  0999 V2000
   32.0639   -0.5750   28.4778 C   0  0  2  0  0  0  0  0  0  0  0  0
   31.9952   -1.9650   27.9776 C   0  0  1  0  0  0  0  0  0  0  0  0
   30.6719   -2.4334   28.3509 O   0  0  0  0  0  0  0  0  0  0  0  0
   29.5392   -1.8942   27.7485 C   0  0  0  0  0  0  0  0  0  0  0  0
   28.3551   -2.6294   27.6195 C   0  0  0  0  0  0  0  0  0  0  0  0
   27.2313   -2.0983   27.0228 C   0  0  0  0  0  0  0  0  0  0  0  0
   27.2325   -0.8115   26.5266 C   0  0  0  0  0  0  0  0  0  0  0  0
   26.1168   -0.2560   25.9233 O   0  0  0  0  0  0  0  0  0  0  0  0
   28.4046   -0.0896   26.6567 C   0  0  0  0  0  0  0  0  0  0  0  0
   29.5247   -0.5890   27.2400 C   0  0  0  0  0  0  0  0  0  0  0  0
   31.0303    0.4216   27.3837 S   0  0  0  0  0  0  0  0  0  0  0  0
   33.3735   -0.0150   28.7878 C   0  0  0  0  0  0  0  0  0  0  0  0
   34.3980   -0.9001   29.0924 C   0  0  0  0  0  0  0  0  0  0  0  0
   35.6664   -0.4670   29.4209 C   0  0  0  0  0  0  0  0  0  0  0  0
   35.9706    0.8827   29.4603 C   0  0  0  0  0  0  0  0  0  0  0  0
   37.2462    1.3170   29.7906 O   0  0  0  0  0  0  0  0  0  0  0  0
   34.9657    1.7809   29.1609 C   0  0  0  0  0  0  0  0  0  0  0  0
   33.7010    1.3212   28.8343 C   0  0  0  0  0  0  0  0  0  0  0  0
   32.0562   -2.1916   26.5267 C   0  0  0  0  0  0  0  0  0  0  0  0
   32.8984   -2.9912   25.8433 C   0  0  0  0  0  0  0  0  0  0  0  0
   32.8412   -3.1093   24.4709 C   0  0  0  0  0  0  0  0  0  0  0  0
   31.9097   -2.4104   23.7002 C   0  0  0  0  0  0  0  0  0  0  0  0
   31.0557   -1.5983   24.3940 C   0  0  0  0  0  0  0  0  0  0  0  0
   31.1106   -1.4791   25.7639 C   0  0  0  0  0  0  0  0  0  0  0  0
   31.9555   -2.6087   22.3599 O   0  0  0  0  0  0  0  0  0  0  0  0
   32.9565   -2.3711   21.4418 C   0  0  0  0  0  0  0  0  0  0  0  0
   33.3950   -3.5668   20.6905 C   0  0  0  0  0  0  0  0  0  0  0  0
   32.3510   -4.2368   19.9626 N   0  0  0  0  0  0  0  0  0  0  0  0
   31.2751   -3.3485   19.5823 C   0  0  0  0  0  0  0  0  0  0  0  0
   30.3448   -4.0779   18.6384 C   0  0  0  0  0  0  0  0  0  0  0  0
   31.0201   -4.4014   17.3387 C   0  0  0  0  0  0  0  0  0  0  0  0
   32.5124   -4.4171   17.5939 C   0  0  0  0  0  0  0  0  0  0  0  0
   32.7616   -5.1203   18.9345 C   0  0  0  0  0  0  0  0  0  0  0  0
  1  2  1  0
  2  3  1  0
  3  4  1  0
  4  5  2  0
  5  6  1  0
  6  7  2  0
  7  8  1  0
  7  9  1  0
  4 10  1  0
  9 10  2  0
  1 11  1  0
 10 11  1  0
  1 12  1  6
 12 13  2  0
 13 14  1  0
 14 15  2  0
 15 16  1  0
 15 17  1  0
 12 18  1  0
 17 18  2  0
  2 19  1  6
 19 20  2  0
 20 21  1  0
 21 22  2  0
 22 23  1  0
 19 24  1  0
 23 24  2  0
 22 25  1  0
 25 26  1  0
 26 27  1  0
 27 28  1  0
 28 29  1  0
 29 30  1  0
 30 31  1  0
 31 32  1  0
 28 33  1  0
 32 33  1  0
M  END
$$$$
