1SJ0_E4D_A_600
     RDKit          3D

 33 37  0  0  0  0  0  0  0  0999 V2000
   31.4317   -0.1935   28.0946 C   0  0  2  0  0  0  0  0  0  0  0  0
   31.5345   -1.6104   27.6838 C   0  0  1  0  0  0  0  0  0  0  0  0
   30.3002   -2.2245   28.1412 O   0  0  0  0  0  0  0  0  0  0  0  0
   29.0851   -1.8816   27.5558 C   0  0  0  0  0  0  0  0  0  0  0  0
   28.0076   -2.7744   27.5226 C   0  0  0  0  0  0  0  0  0  0  0  0
   26.8027   -2.4380   26.9431 C   0  0  0  0  0  0  0  0  0  0  0  0
   26.6130   -1.1982   26.3695 C   0  0  0  0  0  0  0  0  0  0  0  0
   25.4125   -0.8370   25.7814 O   0  0  0  0  0  0  0  0  0  0  0  0
   27.6804   -0.3200   26.4050 C   0  0  0  0  0  0  0  0  0  0  0  0
   28.8770   -0.6265   26.9695 C   0  0  0  0  0  0  0  0  0  0  0  0
   30.2361    0.5823   26.9867 S   0  0  0  0  0  0  0  0  0  0  0  0
   32.6633    0.5547   28.3136 C   0  0  0  0  0  0  0  0  0  0  0  0
   33.7518   -0.1320   28.8326 C   0  0  0  0  0  0  0  0  0  0  0  0
   34.9538    0.4925   29.0960 C   0  0  0  0  0  0  0  0  0  0  0  0
   35.1234    1.8441   28.8504 C   0  0  0  0  0  0  0  0  0  0  0  0
   36.3325    2.4709   29.1155 O   0  0  0  0  0  0  0  0  0  0  0  0
   34.0530    2.5467   28.3342 C   0  0  0  0  0  0  0  0  0  0  0  0
   32.8571    1.8972   28.0786 C   0  0  0  0  0  0  0  0  0  0  0  0
   31.5761   -1.9227   26.2482 C   0  0  0  0  0  0  0  0  0  0  0  0
   30.6423   -1.6634   25.3121 C   0  0  0  0  0  0  0  0  0  0  0  0
   30.8159   -2.0146   23.9903 C   0  0  0  0  0  0  0  0  0  0  0  0
   31.9674   -2.6604   23.5351 C   0  0  0  0  0  0  0  0  0  0  0  0
   32.9146   -2.9241   24.4856 C   0  0  0  0  0  0  0  0  0  0  0  0
   32.7437   -2.5741   25.8055 C   0  0  0  0  0  0  0  0  0  0  0  0
   32.0187   -2.9558   22.2130 O   0  0  0  0  0  0  0  0  0  0  0  0
   32.9532   -2.6409   21.2492 C   0  0  0  0  0  0  0  0  0  0  0  0
   33.5419   -3.8102   20.5617 C   0  0  0  0  0  0  0  0  0  0  0  0
   32.6364   -4.5199   19.6985 N   0  0  0  0  0  0  0  0  0  0  0  0
   31.4836   -3.7301   19.3261 C   0  0  0  0  0  0  0  0  0  0  0  0
   30.7114   -4.4628   18.2513 C   0  0  0  0  0  0  0  0  0  0  0  0
   31.5004   -4.5686   16.9800 C   0  0  0  0  0  0  0  0  0  0  0  0
   32.9645   -4.4345   17.3418 C   0  0  0  0  0  0  0  0  0  0  0  0
   33.2164   -5.2380   18.6243 C   0  0  0  0  0  0  0  0  0  0  0  0
  1  2  1  0
  2  3  1  0
  3  4  1  0
  4  5  2  0
  5  6  1  0
  6  7  2  0
  7  8  1  0
  7  9  1  0
  4 10  1  0
  9 10  2  0
  1 11  1  0
 10 11  1  0
  1 12  1  6
 12 13  2  0
 13 14  1  0
 14 15  2  0
 15 16  1  0
 15 17  1  0
 12 18  1  0
 17 18  2  0
  2 19  1  6
 19 20  2  0
 20 21  1  0
 21 22  2  0
 22 23  1  0
 19 24  1  0
 23 24  2  0
 22 25  1  0
 25 26  1  0
 26 27  1  0
 27 28  1  0
 28 29  1  0
 29 30  1  0
 30 31  1  0
 31 32  1  0
 28 33  1  0
 32 33  1  0
M  END
$$$$
