
     RDKit          3D

 27 28  0  0  0  0  0  0  0  0999 V2000
   29.6118   -5.4344    9.3583 C   0  0  0  0  0  0  0  0  0  0  0  0
   31.2717   -3.2829   11.8760 C   0  0  0  0  0  0  0  0  0  0  0  0
   31.5919   -4.3624   14.0224 C   0  0  0  0  0  0  0  0  0  0  0  0
   30.7133   -5.6153   12.1390 C   0  0  0  0  0  0  0  0  0  0  0  0
   27.3294   -6.9477    8.1924 C   0  0  0  0  0  0  0  0  0  0  0  0
   26.4152   -7.8685    7.6605 C   0  0  0  0  0  0  0  0  0  0  0  0
   24.5474   -7.5332    9.3211 C   0  0  0  0  0  0  0  0  0  0  0  0
   25.9414   -9.5788    9.5423 C   0  0  0  0  0  0  0  0  0  0  0  0
   27.6725   -6.6227    3.0919 C   0  0  0  0  0  0  0  0  0  0  0  0
   27.4988   -7.9062    3.9326 C   0  0  0  0  0  0  0  0  0  0  0  0
   26.1804   -8.6028    3.5315 C   0  0  0  0  0  0  0  0  0  0  0  0
   28.6532   -8.8605    3.5508 C   0  0  0  0  0  0  0  0  0  0  0  0
   27.4583   -7.5440    5.4284 C   0  0  0  0  0  0  0  0  0  0  0  0
   28.3470   -6.6301    6.0095 C   0  0  0  0  0  0  0  0  0  0  0  0
   28.2779   -6.3191    7.3741 C   0  0  0  0  0  0  0  0  0  0  0  0
   29.2578   -5.3380    7.9147 C   0  0  0  0  0  0  0  0  0  0  0  0
   30.3915   -4.4929    9.9117 C   0  0  0  0  0  0  0  0  0  0  0  0
   30.7755   -4.4737   11.3290 C   0  0  0  0  0  0  0  0  0  0  0  0
   31.6726   -3.2230   13.2153 C   0  0  0  0  0  0  0  0  0  0  0  0
   32.0039   -4.3517   15.4467 C   0  0  0  0  0  0  0  0  0  0  0  0
   31.1135   -5.5595   13.4784 C   0  0  0  0  0  0  0  0  0  0  0  0
   25.3531   -8.5794    8.5202 C   0  0  0  0  0  0  0  0  0  0  0  0
   24.3926   -9.3725    7.6080 C   0  0  0  0  0  0  0  0  0  0  0  0
   26.5018   -8.1422    6.2774 C   0  0  0  0  0  0  0  0  0  0  0  0
   29.7204   -4.4628    7.1903 O   0  0  0  0  0  0  0  0  0  0  0  0
   31.6885   -5.1753   16.2855 O   0  0  0  0  0  0  0  0  0  0  0  0
   32.7925   -3.3071   15.7550 O   0  0  0  0  0  0  0  0  0  0  0  0
  5  6  4  0
  9 10  1  0
 10 11  1  0
 10 12  1  0
 10 13  1  0
 13 14  4  0
  5 15  4  0
 14 15  4  0
 15 16  1  0
  1 16  1  0
  1 17  2  0
 17 18  1  0
  4 18  4  0
  2 18  4  0
  2 19  4  0
  3 19  4  0
  3 20  1  0
  4 21  4  0
  3 21  4  0
  7 22  1  0
  8 22  1  0
  6 22  1  0
 22 23  1  0
  6 24  4  0
 13 24  4  0
 16 25  2  0
 20 26  2  0
 20 27  1  0
M  END
