
     RDKit          3D

 31 33  0  0  0  0  0  0  0  0999 V2000
  -26.4610   -3.4637   12.0096 P   0  0  0  0  0  5  0  0  0  0  0  0
  -27.6489   -4.1253   11.3906 O   0  0  0  0  0  0  0  0  0  0  0  0
  -25.7509   -4.4623   13.0225 O   0  0  0  0  0  0  0  0  0  0  0  0
  -25.3228   -3.3033   10.9029 O   0  0  0  0  0  0  0  0  0  0  0  0
  -27.8875   -1.9721   13.7059 P   0  0  1  0  0  5  0  0  0  0  0  0
  -27.7372   -2.7395   14.9807 O   0  0  0  0  0  0  0  0  0  0  0  0
  -28.2613   -0.4500   14.0234 O   0  0  0  0  0  0  0  0  0  0  0  0
  -26.6958   -2.0261   12.6509 N   0  0  0  0  0  0  0  0  0  0  0  0
  -30.1523   -3.6419   13.3681 P   0  0  2  0  0  5  0  0  0  0  0  0
  -29.5850   -5.0175   13.2614 O   0  0  0  0  0  0  0  0  0  0  0  0
  -31.4158   -3.4638   12.3933 O   0  0  0  0  0  0  0  0  0  0  0  0
  -29.2194   -2.4301   12.9548 O   0  0  0  0  0  0  0  0  0  0  0  0
  -30.7723   -3.2294   14.7891 O   0  0  0  0  0  0  0  0  0  0  0  0
  -31.6050   -2.0779   14.8456 C   0  0  0  0  0  0  0  0  0  0  0  0
  -31.7595   -1.6242   16.2968 C   0  0  1  0  0  0  0  0  0  0  0  0
  -32.9465   -2.2034   16.8790 O   0  0  0  0  0  0  0  0  0  0  0  0
  -30.6099   -2.0754   17.1860 C   0  0  1  0  0  0  0  0  0  0  0  0
  -29.4544   -1.2610   17.0640 O   0  0  0  0  0  0  0  0  0  0  0  0
  -31.2406   -1.9832   18.5652 C   0  0  1  0  0  0  0  0  0  0  0  0
  -31.1981   -0.6121   19.0045 O   0  0  0  0  0  0  0  0  0  0  0  0
  -32.6875   -2.4289   18.2898 C   0  0  2  0  0  0  0  0  0  0  0  0
  -32.9285   -3.8294   18.5889 N   0  0  0  0  0  0  0  0  0  0  0  0
  -32.4648   -4.9236   17.9063 C   0  0  0  0  0  0  0  0  0  0  0  0
  -32.8775   -6.0536   18.4445 N   0  0  0  0  0  0  0  0  0  0  0  0
  -33.6603   -5.6699   19.5139 C   0  0  0  0  0  0  0  0  0  0  0  0
  -34.3872   -6.3987   20.4701 C   0  0  0  0  0  0  0  0  0  0  0  0
  -34.4323   -7.7871   20.4984 N   0  0  0  0  0  0  0  0  0  0  0  0
  -35.0942   -5.7174   21.4000 N   0  0  0  0  0  0  0  0  0  0  0  0
  -35.0512   -4.3673   21.3770 C   0  0  0  0  0  0  0  0  0  0  0  0
  -34.3813   -3.5631   20.5247 N   0  0  0  0  0  0  0  0  0  0  0  0
  -33.7128   -4.2890   19.6130 C   0  0  0  0  0  0  0  0  0  0  0  0
  1  2  2  0
  1  3  1  0
  1  4  1  0
  5  6  2  0
  5  7  1  1
  1  8  1  0
  5  8  1  0
  9 10  2  0
  9 11  1  6
  5 12  1  0
  9 12  1  0
  9 13  1  0
 13 14  1  0
 15 14  1  6
 15 16  1  0
 15 17  1  0
 17 18  1  1
 17 19  1  0
 19 20  1  6
 16 21  1  0
 19 21  1  0
 21 22  1  6
 22 23  4  0
 23 24  4  0
 24 25  4  0
 25 26  4  0
 26 27  1  0
 26 28  4  0
 28 29  4  0
 29 30  4  0
 22 31  4  0
 25 31  4  0
 30 31  4  0
M  END
