7BLG_GAL_A_201
     RDKit          3D

 12 12  0  0  0  0  0  0  0  0999 V2000
  -31.4020    2.2040   -9.0620 C   0  0  2  0  0  0  0  0  0  0  0  0
  -30.4380    2.0580  -10.2330 C   0  0  1  0  0  0  0  0  0  0  0  0
  -29.5720    0.8220  -10.0980 C   0  0  2  0  0  0  0  0  0  0  0  0
  -28.9440    0.7630   -8.6790 C   0  0  2  0  0  0  0  0  0  0  0  0
  -30.0210    0.9410   -7.6280 C   0  0  1  0  0  0  0  0  0  0  0  0
  -29.4950    0.9900   -6.2100 C   0  0  0  0  0  0  0  0  0  0  0  0
  -32.0580    3.4230   -9.1390 O   0  0  0  0  0  0  0  0  0  0  0  0
  -31.1730    1.9270  -11.4470 O   0  0  0  0  0  0  0  0  0  0  0  0
  -28.5190    0.8520  -11.0580 O   0  0  0  0  0  0  0  0  0  0  0  0
  -28.0050    1.8080   -8.5250 O   0  0  0  0  0  0  0  0  0  0  0  0
  -30.7050    2.1810   -7.8370 O   0  0  0  0  0  0  0  0  0  0  0  0
  -30.5580    1.1110   -5.2700 O   0  0  0  0  0  0  0  0  0  0  0  0
  1  2  1  0
  2  3  1  0
  3  4  1  0
  4  5  1  0
  5  6  1  1
  1  7  1  6
  2  8  1  6
  3  9  1  6
  4 10  1  6
  1 11  1  0
  5 11  1  0
  6 12  1  0
M  END
$$$$
