7ZXV_45D_A_402
     RDKit          3D

 94 95  0  0  0  0  0  0  0  0999 V2000
    7.4017    1.0599   11.0691 O   0  0  0  0  0  0  0  0  0  0  0  0
   -9.4848    4.0807   -8.7022 O   0  0  0  0  0  0  0  0  0  0  0  0
    7.4197   -2.5495    8.9462 C   0  0  0  0  0  0  0  0  0  0  0  0
   -9.3200    0.0222   -7.7214 C   0  0  0  0  0  0  0  0  0  0  0  0
    7.8148   -2.4763   10.4487 C   0  0  0  0  0  0  0  0  0  0  0  0
  -10.4648    0.6002   -8.5990 C   0  0  0  0  0  0  0  0  0  0  0  0
    7.5869   -1.1882    8.2519 C   0  0  0  0  0  0  0  0  0  0  0  0
   -8.7147    1.1055   -6.8195 C   0  0  0  0  0  0  0  0  0  0  0  0
    7.1619   -1.2954   11.1648 C   0  0  0  0  0  0  0  0  0  0  0  0
  -10.0528    1.8681   -9.3413 C   0  0  0  0  0  0  0  0  0  0  0  0
    5.9545   -3.0102    8.8031 C   0  0  0  0  0  0  0  0  0  0  0  0
    8.3289   -3.6100    8.2806 C   0  0  0  0  0  0  0  0  0  0  0  0
   -9.9222   -1.1264   -6.8772 C   0  0  0  0  0  0  0  0  0  0  0  0
   -8.2017   -0.5566   -8.6150 C   0  0  0  0  0  0  0  0  0  0  0  0
    7.6405   -0.0243    8.9598 C   0  0  0  0  0  0  0  0  0  0  0  0
   -8.7939    2.4255   -7.1366 C   0  0  0  0  0  0  0  0  0  0  0  0
    7.4364   -0.0256   10.4304 C   0  0  0  0  0  0  0  0  0  0  0  0
   -9.4552    2.8594   -8.3928 C   0  0  0  0  0  0  0  0  0  0  0  0
    7.5454   -1.1714    6.7658 C   0  0  0  0  0  0  0  0  0  0  0  0
   -7.9685    0.6708   -5.6132 C   0  0  0  0  0  0  0  0  0  0  0  0
    7.8483    1.3079    8.2731 C   0  0  0  0  0  0  0  0  0  0  0  0
   -8.1968    3.4792   -6.2305 C   0  0  0  0  0  0  0  0  0  0  0  0
    6.5169   -0.6225    6.1093 C   0  0  0  0  0  0  0  0  0  0  0  0
   -6.6306    0.6994   -5.5702 C   0  0  0  0  0  0  0  0  0  0  0  0
    6.3290   -0.7284    4.6403 C   0  0  0  0  0  0  0  0  0  0  0  0
   -5.8584    0.3476   -4.3484 C   0  0  0  0  0  0  0  0  0  0  0  0
    6.7411   -1.9793    3.9019 C   0  0  0  0  0  0  0  0  0  0  0  0
   -6.4843   -0.5079   -3.2743 C   0  0  0  0  0  0  0  0  0  0  0  0
    5.6574    0.2587    4.0186 C   0  0  0  0  0  0  0  0  0  0  0  0
   -4.6187    0.8586   -4.2063 C   0  0  0  0  0  0  0  0  0  0  0  0
    5.2247    0.2068    2.6051 C   0  0  0  0  0  0  0  0  0  0  0  0
   -3.8545    0.8033   -2.9424 C   0  0  0  0  0  0  0  0  0  0  0  0
    4.4229    1.1547    2.1070 C   0  0  0  0  0  0  0  0  0  0  0  0
   -2.5501    1.1054   -2.9019 C   0  0  0  0  0  0  0  0  0  0  0  0
    3.8126    1.0662    0.7577 C   0  0  0  0  0  0  0  0  0  0  0  0
   -1.7537    1.1811   -1.6468 C   0  0  0  0  0  0  0  0  0  0  0  0
    2.5718    1.5669    0.6006 C   0  0  0  0  0  0  0  0  0  0  0  0
   -0.4288    1.4271   -1.7479 C   0  0  0  0  0  0  0  0  0  0  0  0
    4.5300    0.3588   -0.3688 C   0  0  0  0  0  0  0  0  0  0  0  0
   -2.4414    1.0594   -0.3008 C   0  0  0  0  0  0  0  0  0  0  0  0
    1.7487    1.3856   -0.6160 C   0  0  0  0  0  0  0  0  0  0  0  0
    0.4481    1.6907   -0.5882 C   0  0  0  0  0  0  0  0  0  0  0  0
    8.9202   -2.3671   10.5417 H   0  0  0  0  0  0  0  0  0  0  0  0
    7.5306   -3.4202   10.9742 H   0  0  0  0  0  0  0  0  0  0  0  0
  -11.3395    0.8459   -7.9530 H   0  0  0  0  0  0  0  0  0  0  0  0
  -10.8045   -0.1573   -9.3397 H   0  0  0  0  0  0  0  0  0  0  0  0
    6.0680   -1.4462   11.2425 H   0  0  0  0  0  0  0  0  0  0  0  0
    7.5681   -1.2308   12.1965 H   0  0  0  0  0  0  0  0  0  0  0  0
  -10.9530    2.3058   -9.8272 H   0  0  0  0  0  0  0  0  0  0  0  0
   -9.3141    1.6332  -10.1389 H   0  0  0  0  0  0  0  0  0  0  0  0
    5.7946   -3.9814    9.3218 H   0  0  0  0  0  0  0  0  0  0  0  0
    5.2583   -2.2542    9.2279 H   0  0  0  0  0  0  0  0  0  0  0  0
    5.6878   -3.1516    7.7335 H   0  0  0  0  0  0  0  0  0  0  0  0
    9.3857   -3.2616    8.2601 H   0  0  0  0  0  0  0  0  0  0  0  0
    8.2914   -4.5703    8.8412 H   0  0  0  0  0  0  0  0  0  0  0  0
    8.0094   -3.8292    7.2376 H   0  0  0  0  0  0  0  0  0  0  0  0
   -9.1337   -1.6631   -6.3064 H   0  0  0  0  0  0  0  0  0  0  0  0
  -10.4310   -1.8671   -7.5343 H   0  0  0  0  0  0  0  0  0  0  0  0
  -10.6718   -0.7268   -6.1573 H   0  0  0  0  0  0  0  0  0  0  0  0
   -7.4258   -1.0526   -7.9937 H   0  0  0  0  0  0  0  0  0  0  0  0
   -8.6157   -1.3085   -9.3191 H   0  0  0  0  0  0  0  0  0  0  0  0
   -7.7007    0.2441   -9.1999 H   0  0  0  0  0  0  0  0  0  0  0  0
    8.3196   -1.6960    6.2268 H   0  0  0  0  0  0  0  0  0  0  0  0
   -8.5473    0.3512   -4.7559 H   0  0  0  0  0  0  0  0  0  0  0  0
    8.3487    2.0289    8.9544 H   0  0  0  0  0  0  0  0  0  0  0  0
    8.5030    1.2083    7.3799 H   0  0  0  0  0  0  0  0  0  0  0  0
    6.8653    1.7308    7.9700 H   0  0  0  0  0  0  0  0  0  0  0  0
   -7.0975    3.5119   -6.3755 H   0  0  0  0  0  0  0  0  0  0  0  0
   -8.6137    4.4880   -6.4406 H   0  0  0  0  0  0  0  0  0  0  0  0
   -8.4198    3.2568   -5.1653 H   0  0  0  0  0  0  0  0  0  0  0  0
    5.7650   -0.0832    6.6798 H   0  0  0  0  0  0  0  0  0  0  0  0
   -6.0938    1.0657   -6.4386 H   0  0  0  0  0  0  0  0  0  0  0  0
    7.4340   -1.7312    3.0731 H   0  0  0  0  0  0  0  0  0  0  0  0
    5.8413   -2.4854    3.5024 H   0  0  0  0  0  0  0  0  0  0  0  0
    7.2399   -2.7180    4.5609 H   0  0  0  0  0  0  0  0  0  0  0  0
   -5.7252   -1.1621   -2.7933 H   0  0  0  0  0  0  0  0  0  0  0  0
   -7.2460   -1.1924   -3.7059 H   0  0  0  0  0  0  0  0  0  0  0  0
   -6.9570    0.1347   -2.5041 H   0  0  0  0  0  0  0  0  0  0  0  0
    5.3676    1.1287    4.5989 H   0  0  0  0  0  0  0  0  0  0  0  0
   -4.1773    1.4061   -5.0309 H   0  0  0  0  0  0  0  0  0  0  0  0
    5.4877   -0.6463    1.9928 H   0  0  0  0  0  0  0  0  0  0  0  0
   -4.3892    0.5689   -2.0375 H   0  0  0  0  0  0  0  0  0  0  0  0
    4.1010    1.9644    2.7567 H   0  0  0  0  0  0  0  0  0  0  0  0
   -2.0542    1.3351   -3.8370 H   0  0  0  0  0  0  0  0  0  0  0  0
    2.1026    2.0606    1.4478 H   0  0  0  0  0  0  0  0  0  0  0  0
    0.0316    1.4376   -2.7273 H   0  0  0  0  0  0  0  0  0  0  0  0
    5.6130    0.2475   -0.1478 H   0  0  0  0  0  0  0  0  0  0  0  0
    4.4644    0.9488   -1.3066 H   0  0  0  0  0  0  0  0  0  0  0  0
    4.0805   -0.6452   -0.5313 H   0  0  0  0  0  0  0  0  0  0  0  0
   -1.7398    0.8503    0.5325 H   0  0  0  0  0  0  0  0  0  0  0  0
   -3.1381    0.1952   -0.2896 H   0  0  0  0  0  0  0  0  0  0  0  0
   -3.0014    1.9908   -0.0762 H   0  0  0  0  0  0  0  0  0  0  0  0
    2.1644    0.9319   -1.5090 H   0  0  0  0  0  0  0  0  0  0  0  0
    0.0295    2.1205    0.3132 H   0  0  0  0  0  0  0  0  0  0  0  0
  3  5  1  0
  4  6  1  0
  3  7  1  0
  4  8  1  0
  5  9  1  0
  6 10  1  0
  3 11  1  0
  3 12  1  0
  4 13  1  0
  4 14  1  0
  7 15  2  0
  8 16  2  0
  1 17  2  0
  9 17  1  0
 15 17  1  0
 16 18  1  0
 10 18  1  0
  2 18  2  0
  7 19  1  0
  8 20  1  0
 15 21  1  0
 16 22  1  0
 19 23  2  0
 20 24  2  0
 23 25  1  0
 24 26  1  0
 25 27  1  0
 26 28  1  0
 25 29  2  0
 26 30  2  0
 29 31  1  0
 30 32  1  0
 31 33  2  0
 32 34  2  0
 33 35  1  0
 34 36  1  0
 35 37  2  0
 36 38  2  0
 35 39  1  0
 36 40  1  0
 37 41  1  0
 41 42  2  0
 38 42  1  0
  5 43  1  0
  5 44  1  0
  6 45  1  0
  6 46  1  0
  9 47  1  0
  9 48  1  0
 10 49  1  0
 10 50  1  0
 11 51  1  0
 11 52  1  0
 11 53  1  0
 12 54  1  0
 12 55  1  0
 12 56  1  0
 13 57  1  0
 13 58  1  0
 13 59  1  0
 14 60  1  0
 14 61  1  0
 14 62  1  0
 19 63  1  0
 20 64  1  0
 21 65  1  0
 21 66  1  0
 21 67  1  0
 22 68  1  0
 22 69  1  0
 22 70  1  0
 23 71  1  0
 24 72  1  0
 27 73  1  0
 27 74  1  0
 27 75  1  0
 28 76  1  0
 28 77  1  0
 28 78  1  0
 29 79  1  0
 30 80  1  0
 31 81  1  0
 32 82  1  0
 33 83  1  0
 34 84  1  0
 37 85  1  0
 38 86  1  0
 39 87  1  0
 39 88  1  0
 39 89  1  0
 40 90  1  0
 40 91  1  0
 40 92  1  0
 41 93  1  0
 42 94  1  0
M  END
