7O1T_5X8_A_407
     RDKit          3D

 25 27  0  0  0  0  0  0  0  0999 V2000
  -15.4478   21.9535  -26.3956 N   0  0  0  0  0  0  0  0  0  0  0  0
  -16.1847   20.0369  -25.2859 C   0  0  0  0  0  0  0  0  0  0  0  0
  -16.3018   17.9760  -24.5571 C   0  0  0  0  0  0  0  0  0  0  0  0
  -14.3729   21.2401  -26.9586 C   0  0  0  0  0  0  0  0  0  0  0  0
  -16.3456   21.3518  -25.5810 C   0  0  0  0  0  0  0  0  0  0  0  0
  -14.2417   19.8853  -26.6395 N   0  0  0  0  0  0  0  0  0  0  0  0
  -15.1496   19.3337  -25.8075 C   0  0  0  0  0  0  0  0  0  0  0  0
  -12.4850   12.6038  -19.7758 O   0  0  0  0  0  0  0  0  0  0  0  0
  -13.0346   13.2751  -20.6685 C   0  0  0  0  0  0  0  0  0  0  0  0
  -12.5438   14.2831  -21.2203 O   0  0  0  0  0  0  0  0  0  0  0  0
  -14.4414   12.7923  -21.1106 C   0  0  1  0  0  0  0  0  0  0  0  0
  -15.3746   13.9108  -21.0453 N   0  0  0  0  0  0  0  0  0  0  0  0
  -14.4240   12.1935  -22.5524 C   0  0  0  0  0  0  0  0  0  0  0  0
  -15.4183   13.2542  -23.7103 S   0  0  0  0  0  0  0  0  0  0  0  0
  -14.1128   13.4555  -25.0027 C   0  0  0  0  0  0  0  0  0  0  0  0
  -13.6065   14.9161  -25.2859 C   0  0  1  0  0  0  0  0  0  0  0  0
  -14.7082   15.8075  -25.5742 O   0  0  0  0  0  0  0  0  0  0  0  0
  -12.9218   15.6383  -24.1372 C   0  0  1  0  0  0  0  0  0  0  0  0
  -11.5496   15.2288  -23.9998 O   0  0  0  0  0  0  0  0  0  0  0  0
  -13.0338   17.1009  -24.6392 C   0  0  1  0  0  0  0  0  0  0  0  0
  -11.7835   17.6035  -25.1968 O   0  0  0  0  0  0  0  0  0  0  0  0
  -14.1573   17.0879  -25.7286 C   0  0  2  0  0  0  0  0  0  0  0  0
  -15.2146   18.0884  -25.3538 N   0  0  0  0  0  0  0  0  0  0  0  0
  -16.8900   19.1739  -24.5215 N   0  0  0  0  0  0  0  0  0  0  0  0
  -17.4006   22.0548  -25.0470 N   0  0  0  0  0  0  0  0  0  0  0  0
  1  4  2  0
  1  5  1  0
  2  5  2  0
  4  6  1  0
  6  7  2  0
  2  7  1  0
  8  9  1  0
  9 10  2  0
  9 11  1  0
 11 12  1  6
 11 13  1  0
 13 14  1  0
 14 15  1  0
 16 15  1  1
 16 17  1  0
 16 18  1  0
 18 19  1  6
 18 20  1  0
 20 21  1  6
 17 22  1  0
 20 22  1  0
 22 23  1  1
  7 23  1  0
  3 23  1  0
  2 24  1  0
  3 24  2  0
  5 25  1  0
M  END
