
     RDKit          3D

 35 37  0  0  0  0  0  0  0  0999 V2000
   33.9561  -20.5089   24.8029 C   0  0  0  0  0  0  0  0  0  0  0  0
   33.8469  -21.9536   24.3409 C   0  0  0  0  0  0  0  0  0  0  0  0
   31.4049  -22.1092   23.8242 C   0  0  0  0  0  0  0  0  0  0  0  0
   32.7209  -22.2761   22.0950 C   0  0  0  0  0  0  0  0  0  0  0  0
   29.2796  -22.2839   22.4910 C   0  0  0  0  0  0  0  0  0  0  0  0
   26.5241  -23.3068   24.5315 O   0  0  0  0  0  0  0  0  0  0  0  0
   27.1814  -24.4024   25.2204 C   0  0  1  0  0  0  0  0  0  0  0  0
   27.3255  -23.9554   26.6759 C   0  0  0  0  0  0  0  0  0  0  0  0
   26.3648  -25.6984   25.1540 C   0  0  0  0  0  0  0  0  0  0  0  0
   27.2593  -21.9146   21.2367 C   0  0  0  0  0  0  0  0  0  0  0  0
   28.6470  -21.8516   21.3276 C   0  0  0  0  0  0  0  0  0  0  0  0
   22.1087  -23.8460   23.6449 C   0  0  0  0  0  0  0  0  0  0  0  0
   22.5696  -23.5723   25.0496 C   0  0  0  0  0  0  0  0  0  0  0  0
   20.7556  -24.1457   23.4303 C   0  0  0  0  0  0  0  0  0  0  0  0
   20.3147  -24.3991   22.1429 C   0  0  0  0  0  0  0  0  0  0  0  0
   22.4296  -24.1160   21.2822 C   0  0  0  0  0  0  0  0  0  0  0  0
   32.7292  -22.1471   23.4351 N   0  0  0  0  0  0  0  0  0  0  0  0
   31.0068  -21.9665   24.9712 O   0  0  0  0  0  0  0  0  0  0  0  0
   30.6786  -22.2468   22.6299 N   0  0  0  0  0  0  0  0  0  0  0  0
   31.5363  -22.3383   21.5585 N   0  0  0  0  0  0  0  0  0  0  0  0
   33.9883  -22.3263   21.2757 C   0  0  0  0  0  0  0  0  0  0  0  0
   34.6851  -21.0945   21.3525 O   0  0  0  0  0  0  0  0  0  0  0  0
   28.5528  -22.7595   23.5325 N   0  0  0  0  0  0  0  0  0  0  0  0
   27.2081  -22.8312   23.4308 C   0  0  0  0  0  0  0  0  0  0  0  0
   26.0815  -26.0340   23.8737 F   0  0  0  0  0  0  0  0  0  0  0  0
   27.0707  -26.7287   25.6872 F   0  0  0  0  0  0  0  0  0  0  0  0
   25.1970  -25.6340   25.8256 F   0  0  0  0  0  0  0  0  0  0  0  0
   26.5063  -22.4172   22.3045 C   0  0  0  0  0  0  0  0  0  0  0  0
   29.3227  -21.3658   20.2764 F   0  0  0  0  0  0  0  0  0  0  0  0
   25.0266  -22.4642   22.1426 C   0  0  0  0  0  0  0  0  0  0  0  0
   24.4878  -21.5622   21.5088 O   0  0  0  0  0  0  0  0  0  0  0  0
   24.3478  -23.4940   22.7672 N   0  0  0  0  0  0  0  0  0  0  0  0
   22.9795  -23.7992   22.5377 C   0  0  0  0  0  0  0  0  0  0  0  0
   21.1219  -24.4077   21.0684 N   0  0  0  0  0  0  0  0  0  0  0  0
   23.3743  -24.4638   19.8780 Cl  0  0  0  0  0  0  0  0  0  0  0  0
  1  2  1  0
  6  7  1  0
  7  8  1  1
  7  9  1  0
 10 11  4  0
  5 11  4  0
 12 13  1  0
 12 14  4  0
 14 15  4  0
  3 17  4  0
  2 17  1  0
  4 17  4  0
  3 18  2  0
  3 19  4  0
  5 19  1  0
 19 20  4  0
  4 20  4  0
  4 21  1  0
 21 22  1  0
  5 23  4  0
 23 24  4  0
  6 24  1  0
  9 25  1  0
  9 26  1  0
  9 27  1  0
 10 28  4  0
 24 28  4  0
 11 29  1  0
 28 30  1  0
 30 31  2  0
 30 32  1  0
 12 33  4  0
 32 33  1  0
 16 33  4  0
 15 34  4  0
 16 34  4  0
 16 35  1  0
M  END
