2BR1_PFP_A_1277
     RDKit          3D

 29 32  0  0  0  0  0  0  0  0999 V2000
   17.6770   -8.4555   12.6801 C   0  0  0  0  0  0  0  0  0  0  0  0
   18.4279   -7.2769   12.7389 O   0  0  0  0  0  0  0  0  0  0  0  0
   18.0573   -6.1052   12.0953 C   0  0  0  0  0  0  0  0  0  0  0  0
   17.2276   -6.0722   10.9936 C   0  0  0  0  0  0  0  0  0  0  0  0
   16.8964   -4.8595   10.3970 C   0  0  0  0  0  0  0  0  0  0  0  0
   18.5699   -4.9277   12.6192 C   0  0  0  0  0  0  0  0  0  0  0  0
   18.2497   -3.7197   12.0377 C   0  0  0  0  0  0  0  0  0  0  0  0
   17.4068   -3.6731   10.9168 C   0  0  0  0  0  0  0  0  0  0  0  0
   17.1124   -2.3750   10.3231 C   0  0  0  0  0  0  0  0  0  0  0  0
   15.9471   -1.6408   10.3240 C   0  0  0  0  0  0  0  0  0  0  0  0
   14.6995   -1.8673   10.8659 C   0  0  0  0  0  0  0  0  0  0  0  0
   14.3861   -3.0328   11.6082 N   0  0  0  0  0  0  0  0  0  0  0  0
   13.0816   -3.3061   12.1788 C   0  0  0  0  0  0  0  0  0  0  0  0
   12.7652   -2.5587   13.4261 C   0  0  0  0  0  0  0  0  0  0  0  0
   13.5300   -2.8769   14.5311 O   0  0  0  0  0  0  0  0  0  0  0  0
   13.7496   -0.9366   10.6891 N   0  0  0  0  0  0  0  0  0  0  0  0
   14.0516    0.1681    9.9971 C   0  0  0  0  0  0  0  0  0  0  0  0
   15.2620    0.4085    9.4602 N   0  0  0  0  0  0  0  0  0  0  0  0
   16.2559   -0.4923    9.6060 C   0  0  0  0  0  0  0  0  0  0  0  0
   17.4847   -0.5478    9.2208 O   0  0  0  0  0  0  0  0  0  0  0  0
   18.0673   -1.6604    9.6187 C   0  0  0  0  0  0  0  0  0  0  0  0
   19.4502   -2.0158    9.3417 C   0  0  0  0  0  0  0  0  0  0  0  0
   20.3010   -0.9957    8.9297 C   0  0  0  0  0  0  0  0  0  0  0  0
   21.6198   -1.2502    8.6494 C   0  0  0  0  0  0  0  0  0  0  0  0
   22.1233   -2.5305    8.7733 C   0  0  0  0  0  0  0  0  0  0  0  0
   23.4654   -2.7092    8.4722 O   0  0  0  0  0  0  0  0  0  0  0  0
   24.3338   -1.6911    8.0366 C   0  0  0  0  0  0  0  0  0  0  0  0
   21.2883   -3.5445    9.1802 C   0  0  0  0  0  0  0  0  0  0  0  0
   19.9486   -3.2955    9.4669 C   0  0  0  0  0  0  0  0  0  0  0  0
  1  2  1  1
  2  3  1  0
  3  4  2  0
  4  5  1  0
  3  6  1  0
  6  7  2  0
  5  8  2  0
  7  8  1  0
  8  9  1  0
  9 10  1  0
 10 11  2  0
 11 12  1  0
 13 12  1  6
 13 14  1  0
 14 15  1  6
 11 16  1  0
 16 17  2  0
 17 18  1  0
 10 19  1  0
 18 19  2  0
 19 20  1  0
  9 21  2  0
 20 21  1  0
 21 22  1  0
 22 23  2  0
 23 24  1  0
 24 25  2  0
 25 26  1  0
 27 26  1  1
 25 28  1  0
 22 29  1  0
 28 29  2  0
M  END
$$$$
