
     RDKit          3D

 30 33  0  0  0  0  0  0  0  0999 V2000
   43.8875  110.5144   82.4206 C   0  0  0  0  0  0  0  0  0  0  0  0
   44.0281  111.1819   81.1917 C   0  0  0  0  0  0  0  0  0  0  0  0
   45.0360  110.2694   83.1854 C   0  0  0  0  0  0  0  0  0  0  0  0
   45.2858  111.5984   80.7278 C   0  0  0  0  0  0  0  0  0  0  0  0
   46.2899  110.6849   82.7386 C   0  0  0  0  0  0  0  0  0  0  0  0
   46.4136  111.3476   81.5199 C   0  0  0  0  0  0  0  0  0  0  0  0
   45.4167  112.3301   79.4157 C   0  0  0  0  0  0  0  0  0  0  0  0
   44.9904  111.5067   78.2895 N   0  0  0  0  0  0  0  0  0  0  0  0
   41.6115  109.6825   81.7066 C   0  0  0  0  0  0  0  0  0  0  0  0
   40.1505  109.5959   82.1333 C   0  0  0  0  0  0  0  0  0  0  0  0
   38.3574  111.3391   82.4970 C   0  0  0  0  0  0  0  0  0  0  0  0
   37.5362  110.7772   81.7733 O   0  0  0  0  0  0  0  0  0  0  0  0
   42.5080  110.0815   82.8918 C   0  0  0  0  0  0  0  0  0  0  0  0
   39.6592  110.8666   82.6746 N   0  0  0  0  0  0  0  0  0  0  0  0
   40.6565  111.8178   83.1599 C   0  0  0  0  0  0  0  0  0  0  0  0
   41.8420  111.1201   83.8155 C   0  0  0  0  0  0  0  0  0  0  0  0
   37.9222  112.5686   83.1896 C   0  0  0  0  0  0  0  0  0  0  0  0
   37.5453  113.7278   82.5091 C   0  0  0  0  0  0  0  0  0  0  0  0
   37.7995  112.5501   84.5717 C   0  0  0  0  0  0  0  0  0  0  0  0
   37.0965  114.8401   83.2308 C   0  0  0  0  0  0  0  0  0  0  0  0
   37.3782  113.6102   85.3048 N   0  0  0  0  0  0  0  0  0  0  0  0
   36.6608  116.1048   82.5378 C   0  0  0  0  0  0  0  0  0  0  0  0
   37.0357  114.7243   84.6184 C   0  0  0  0  0  0  0  0  0  0  0  0
   35.1506  116.3640   82.6239 C   0  0  0  0  0  0  0  0  0  0  0  0
   34.3231  115.3298   81.8974 C   0  0  0  0  0  0  0  0  0  0  0  0
   34.8013  114.7284   80.7263 C   0  0  0  0  0  0  0  0  0  0  0  0
   33.0506  114.9795   82.3706 C   0  0  0  0  0  0  0  0  0  0  0  0
   34.0186  113.8010   80.0378 C   0  0  0  0  0  0  0  0  0  0  0  0
   32.2717  114.0475   81.6837 C   0  0  0  0  0  0  0  0  0  0  0  0
   32.7549  113.4604   80.5168 C   0  0  0  0  0  0  0  0  0  0  0  0
  1  2  4  0
  1  3  4  0
  2  4  4  0
  3  5  4  0
  4  6  4  0
  5  6  4  0
  4  7  1  0
  7  8  1  0
  9 10  1  0
 11 12  2  0
  1 13  1  0
  9 13  1  0
 10 14  1  0
 11 14  1  0
 14 15  1  0
 13 16  1  0
 15 16  1  0
 11 17  1  0
 17 18  4  0
 17 19  4  0
 18 20  4  0
 19 21  4  0
 20 22  1  0
 20 23  4  0
 21 23  4  0
 22 24  1  0
 24 25  1  0
 25 26  4  0
 25 27  4  0
 26 28  4  0
 27 29  4  0
 28 30  4  0
 29 30  4  0
M  END
