1VCJ_IBA_A_1
     RDKit          3D

 25 26  0  0  0  0  0  0  0  0999 V2000
   40.3350   11.2507   57.8968 C   0  0  0  0  0  0  0  0  0  0  0  0
   40.7682   10.0495   57.3854 C   0  0  0  0  0  0  0  0  0  0  0  0
   42.1221    9.6897   57.3530 C   0  0  0  0  0  0  0  0  0  0  0  0
   42.9838   10.6338   57.8753 C   0  0  0  0  0  0  0  0  0  0  0  0
   42.5490   11.8482   58.3935 C   0  0  0  0  0  0  0  0  0  0  0  0
   41.2092   12.1588   58.4034 C   0  0  0  0  0  0  0  0  0  0  0  0
   43.5287   12.7978   58.9305 C   0  0  0  0  0  0  0  0  0  0  0  0
   44.8779   12.4951   58.8687 O   0  0  0  0  0  0  0  0  0  0  0  0
   43.1316   13.8764   59.4410 O   0  0  0  0  0  0  0  0  0  0  0  0
   42.4939    8.4749   56.7857 N   0  0  0  0  0  0  0  0  0  0  0  0
   43.8168    7.9538   56.5663 C   0  0  2  0  0  0  0  0  0  0  0  0
   44.3098    8.0448   55.1512 C   0  0  0  0  0  0  0  0  0  0  0  0
   44.0740    6.6166   57.2178 C   0  0  0  0  0  0  0  0  0  0  0  0
   45.7231    8.6421   55.0995 C   0  0  0  0  0  0  0  0  0  0  0  0
   43.6314    6.7240   58.6835 C   0  0  0  0  0  0  0  0  0  0  0  0
   39.7439    9.1788   56.8782 N   0  0  0  0  0  0  0  0  0  0  0  0
   38.3605    9.5065   56.6444 C   0  0  1  0  0  0  0  0  0  0  0  0
   37.7733    8.2089   56.1530 C   0  0  0  0  0  0  0  0  0  0  0  0
   38.7066    7.1331   56.6401 C   0  0  0  0  0  0  0  0  0  0  0  0
   40.0361    7.8363   56.5032 C   0  0  0  0  0  0  0  0  0  0  0  0
   41.1251    7.3270   56.1409 O   0  0  0  0  0  0  0  0  0  0  0  0
   37.6359    9.8613   57.9194 C   0  0  0  0  0  0  0  0  0  0  0  0
   37.9603    8.9989   58.9657 O   0  0  0  0  0  0  0  0  0  0  0  0
   38.2164   10.6091   55.6093 C   0  0  0  0  0  0  0  0  0  0  0  0
   36.8446   10.9766   55.3769 N   0  0  0  0  0  0  0  0  0  0  0  0
  1  2  2  0
  2  3  1  0
  3  4  2  0
  4  5  1  0
  1  6  1  0
  5  6  2  0
  5  7  1  0
  7  8  1  0
  7  9  2  0
  3 10  1  0
 10 11  1  0
 11 12  1  6
 11 13  1  0
 12 14  1  0
 13 15  1  0
  2 16  1  0
 16 17  1  0
 17 18  1  0
 18 19  1  0
 16 20  1  0
 19 20  1  0
 20 21  2  0
 17 22  1  1
 22 23  1  0
 17 24  1  0
 24 25  1  0
M  END
$$$$
