1VCJ_IBA_A_1
     RDKit          3D

 25 26  0  0  0  0  0  0  0  0999 V2000
   29.9021    9.6328   56.7765 C   0  0  0  0  0  0  0  0  0  0  0  0
   28.5549    9.4129   56.9461 C   0  0  0  0  0  0  0  0  0  0  0  0
   27.5923    9.9215   56.0639 C   0  0  0  0  0  0  0  0  0  0  0  0
   28.1028   10.6576   55.0131 C   0  0  0  0  0  0  0  0  0  0  0  0
   29.4636   10.8809   54.8386 C   0  0  0  0  0  0  0  0  0  0  0  0
   30.3722   10.3623   55.7314 C   0  0  0  0  0  0  0  0  0  0  0  0
   29.9257   11.6741   53.6951 C   0  0  0  0  0  0  0  0  0  0  0  0
   31.2832   11.8504   53.4903 O   0  0  0  0  0  0  0  0  0  0  0  0
   29.0830   12.1850   52.9137 O   0  0  0  0  0  0  0  0  0  0  0  0
   26.2434    9.6932   56.3173 N   0  0  0  0  0  0  0  0  0  0  0  0
   25.1242    9.8441   55.4260 C   0  0  2  0  0  0  0  0  0  0  0  0
   23.8076   10.1085   56.0971 C   0  0  0  0  0  0  0  0  0  0  0  0
   25.0552    8.8046   54.3337 C   0  0  0  0  0  0  0  0  0  0  0  0
   23.9128   11.2965   57.0637 C   0  0  0  0  0  0  0  0  0  0  0  0
   23.9265    9.2134   53.3774 C   0  0  0  0  0  0  0  0  0  0  0  0
   28.1878    8.6279   58.0923 N   0  0  0  0  0  0  0  0  0  0  0  0
   28.8180    8.6325   59.3880 C   0  0  1  0  0  0  0  0  0  0  0  0
   28.0377    7.5993   60.1586 C   0  0  0  0  0  0  0  0  0  0  0  0
   27.3921    6.7226   59.1191 C   0  0  0  0  0  0  0  0  0  0  0  0
   27.0713    7.7448   58.0546 C   0  0  0  0  0  0  0  0  0  0  0  0
   26.0500    7.7788   57.3248 O   0  0  0  0  0  0  0  0  0  0  0  0
   30.2462    8.1497   59.3285 C   0  0  0  0  0  0  0  0  0  0  0  0
   31.1389    9.1827   59.0460 O   0  0  0  0  0  0  0  0  0  0  0  0
   28.7304    9.9994   60.0452 C   0  0  0  0  0  0  0  0  0  0  0  0
   29.2767   10.0113   61.3765 N   0  0  0  0  0  0  0  0  0  0  0  0
  1  2  2  0
  2  3  1  0
  3  4  2  0
  4  5  1  0
  1  6  1  0
  5  6  2  0
  5  7  1  0
  7  8  1  0
  7  9  2  0
  3 10  1  0
 10 11  1  0
 11 12  1  1
 11 13  1  0
 12 14  1  0
 13 15  1  0
  2 16  1  0
 16 17  1  0
 17 18  1  0
 18 19  1  0
 16 20  1  0
 19 20  1  0
 20 21  2  0
 17 22  1  6
 22 23  1  0
 17 24  1  0
 24 25  1  0
M  END
$$$$
