1VCJ_IBA_A_1
     RDKit          3D

 25 26  0  0  0  0  0  0  0  0999 V2000
   45.5967   10.3141   57.0695 C   0  0  0  0  0  0  0  0  0  0  0  0
   45.3413    9.2728   56.2079 C   0  0  0  0  0  0  0  0  0  0  0  0
   46.3613    8.4923   55.6475 C   0  0  0  0  0  0  0  0  0  0  0  0
   47.6391    8.8500   56.0293 C   0  0  0  0  0  0  0  0  0  0  0  0
   47.9002    9.9013   56.9004 C   0  0  0  0  0  0  0  0  0  0  0  0
   46.8663   10.6410   57.4253 C   0  0  0  0  0  0  0  0  0  0  0  0
   49.2869   10.2178   57.2570 C   0  0  0  0  0  0  0  0  0  0  0  0
   49.5464   11.2592   58.1311 O   0  0  0  0  0  0  0  0  0  0  0  0
   50.2242    9.5392   56.7644 O   0  0  0  0  0  0  0  0  0  0  0  0
   46.0338    7.4786   54.7524 N   0  0  0  0  0  0  0  0  0  0  0  0
   46.9148    6.6389   53.9851 C   0  0  2  0  0  0  0  0  0  0  0  0
   46.3447    6.1323   52.6920 C   0  0  0  0  0  0  0  0  0  0  0  0
   47.6271    5.5822   54.7941 C   0  0  0  0  0  0  0  0  0  0  0  0
   45.2400    7.0653   52.1761 C   0  0  0  0  0  0  0  0  0  0  0  0
   48.5606    4.8224   53.8419 C   0  0  0  0  0  0  0  0  0  0  0  0
   43.9566    9.0315   55.9098 N   0  0  0  0  0  0  0  0  0  0  0  0
   42.9096   10.0135   55.7850 C   0  0  1  0  0  0  0  0  0  0  0  0
   41.6842    9.1826   55.5051 C   0  0  0  0  0  0  0  0  0  0  0  0
   42.0082    7.8022   56.0106 C   0  0  0  0  0  0  0  0  0  0  0  0
   43.4744    7.7152   55.6592 C   0  0  0  0  0  0  0  0  0  0  0  0
   44.0923    6.7033   55.2457 O   0  0  0  0  0  0  0  0  0  0  0  0
   42.6575   10.7450   57.0803 C   0  0  0  0  0  0  0  0  0  0  0  0
   41.4392   11.4228   57.0725 O   0  0  0  0  0  0  0  0  0  0  0  0
   43.1911   10.9873   54.6535 C   0  0  0  0  0  0  0  0  0  0  0  0
   42.1804   12.0045   54.5322 N   0  0  0  0  0  0  0  0  0  0  0  0
  1  2  2  0
  2  3  1  0
  3  4  2  0
  4  5  1  0
  1  6  1  0
  5  6  2  0
  5  7  1  0
  7  8  1  0
  7  9  2  0
  3 10  1  0
 10 11  1  0
 11 12  1  6
 11 13  1  0
 12 14  1  0
 13 15  1  0
  2 16  1  0
 16 17  1  0
 17 18  1  0
 18 19  1  0
 16 20  1  0
 19 20  1  0
 20 21  2  0
 17 22  1  1
 22 23  1  0
 17 24  1  0
 24 25  1  0
M  END
$$$$
