1VCJ_IBA_A_1
     RDKit          3D

 25 26  0  0  0  0  0  0  0  0999 V2000
   35.8076    8.2290   60.7774 C   0  0  0  0  0  0  0  0  0  0  0  0
   36.0919    8.4725   59.4539 C   0  0  0  0  0  0  0  0  0  0  0  0
   37.3927    8.7232   58.9973 C   0  0  0  0  0  0  0  0  0  0  0  0
   38.3636    8.7048   59.9789 C   0  0  0  0  0  0  0  0  0  0  0  0
   38.0795    8.4584   61.3171 C   0  0  0  0  0  0  0  0  0  0  0  0
   36.7864    8.2182   61.7194 C   0  0  0  0  0  0  0  0  0  0  0  0
   39.1684    8.4558   62.2992 C   0  0  0  0  0  0  0  0  0  0  0  0
   40.4415    8.8328   61.9081 O   0  0  0  0  0  0  0  0  0  0  0  0
   38.9327    8.1111   63.4855 O   0  0  0  0  0  0  0  0  0  0  0  0
   37.6036    9.0004   57.6501 N   0  0  0  0  0  0  0  0  0  0  0  0
   38.8214    9.3968   56.9948 C   0  0  2  0  0  0  0  0  0  0  0  0
   38.6498   10.3826   55.8756 C   0  0  0  0  0  0  0  0  0  0  0  0
   39.7500    8.2535   56.6647 C   0  0  0  0  0  0  0  0  0  0  0  0
   37.8478   11.6065   56.3401 C   0  0  0  0  0  0  0  0  0  0  0  0
   41.0322    8.8554   56.0736 C   0  0  0  0  0  0  0  0  0  0  0  0
   34.9678    8.4588   58.5589 N   0  0  0  0  0  0  0  0  0  0  0  0
   33.6285    8.0152   58.8511 C   0  0  1  0  0  0  0  0  0  0  0  0
   32.9072    8.1984   57.5410 C   0  0  0  0  0  0  0  0  0  0  0  0
   33.9824    8.2209   56.4877 C   0  0  0  0  0  0  0  0  0  0  0  0
   35.0795    8.9496   57.2268 C   0  0  0  0  0  0  0  0  0  0  0  0
   35.8844    9.7863   56.7485 O   0  0  0  0  0  0  0  0  0  0  0  0
   33.5748    6.5436   59.1797 C   0  0  0  0  0  0  0  0  0  0  0  0
   34.6207    5.8350   58.5903 O   0  0  0  0  0  0  0  0  0  0  0  0
   32.9952    8.8448   59.9550 C   0  0  0  0  0  0  0  0  0  0  0  0
   31.5570    8.8065   59.9228 N   0  0  0  0  0  0  0  0  0  0  0  0
  1  2  2  0
  2  3  1  0
  3  4  2  0
  4  5  1  0
  1  6  1  0
  5  6  2  0
  5  7  1  0
  7  8  1  0
  7  9  2  0
  3 10  1  0
 10 11  1  0
 11 12  1  6
 11 13  1  0
 12 14  1  0
 13 15  1  0
  2 16  1  0
 16 17  1  0
 17 18  1  0
 18 19  1  0
 16 20  1  0
 19 20  1  0
 20 21  2  0
 17 22  1  1
 22 23  1  0
 17 24  1  0
 24 25  1  0
M  END
$$$$
