1VCJ_IBA_A_1
     RDKit          3D

 25 26  0  0  0  0  0  0  0  0999 V2000
   47.5908    5.9998   54.3222 C   0  0  0  0  0  0  0  0  0  0  0  0
   47.7161    7.3166   53.9450 C   0  0  0  0  0  0  0  0  0  0  0  0
   48.6660    8.1753   54.5141 C   0  0  0  0  0  0  0  0  0  0  0  0
   49.4645    7.5954   55.4797 C   0  0  0  0  0  0  0  0  0  0  0  0
   49.3407    6.2649   55.8625 C   0  0  0  0  0  0  0  0  0  0  0  0
   48.3925    5.4593   55.2765 C   0  0  0  0  0  0  0  0  0  0  0  0
   50.2286    5.7241   56.8967 C   0  0  0  0  0  0  0  0  0  0  0  0
   51.1736    6.5474   57.4840 O   0  0  0  0  0  0  0  0  0  0  0  0
   50.1210    4.5184   57.2379 O   0  0  0  0  0  0  0  0  0  0  0  0
   48.7120    9.5068   54.1128 N   0  0  0  0  0  0  0  0  0  0  0  0
   49.5612   10.5620   54.5978 C   0  0  2  0  0  0  0  0  0  0  0  0
   48.9244   11.4818   55.5988 C   0  0  0  0  0  0  0  0  0  0  0  0
   50.3408   11.2768   53.5208 C   0  0  0  0  0  0  0  0  0  0  0  0
   49.9886   12.1853   56.4528 C   0  0  0  0  0  0  0  0  0  0  0  0
   51.2422   10.2396   52.8371 C   0  0  0  0  0  0  0  0  0  0  0  0
   46.8065    7.7660   52.9275 N   0  0  0  0  0  0  0  0  0  0  0  0
   45.7108    7.0280   52.3524 C   0  0  1  0  0  0  0  0  0  0  0  0
   45.1484    7.9802   51.3290 C   0  0  0  0  0  0  0  0  0  0  0  0
   46.2598    8.9488   51.0249 C   0  0  0  0  0  0  0  0  0  0  0  0
   46.8930    9.0817   52.3896 C   0  0  0  0  0  0  0  0  0  0  0  0
   47.3736   10.1235   52.8999 O   0  0  0  0  0  0  0  0  0  0  0  0
   46.1788    5.8047   51.6034 C   0  0  0  0  0  0  0  0  0  0  0  0
   47.4410    5.9847   51.0395 O   0  0  0  0  0  0  0  0  0  0  0  0
   44.6738    6.6629   53.4009 C   0  0  0  0  0  0  0  0  0  0  0  0
   44.5740    7.6445   54.4485 N   0  0  0  0  0  0  0  0  0  0  0  0
  1  2  2  0
  2  3  1  0
  3  4  2  0
  4  5  1  0
  1  6  1  0
  5  6  2  0
  5  7  1  0
  7  8  1  0
  7  9  2  0
  3 10  1  0
 10 11  1  0
 11 12  1  6
 11 13  1  0
 12 14  1  0
 13 15  1  0
  2 16  1  0
 16 17  1  0
 17 18  1  0
 18 19  1  0
 16 20  1  0
 19 20  1  0
 20 21  2  0
 17 22  1  6
 22 23  1  0
 17 24  1  0
 24 25  1  0
M  END
$$$$
