
     RDKit          3D

 25 28  0  0  0  0  0  0  0  0999 V2000
  174.8890   19.3197   47.6186 N   0  0  0  0  0  0  0  0  0  0  0  0
  177.0776   19.4471   46.7698 N   0  0  0  0  0  0  0  0  0  0  0  0
  175.8810   18.8729   46.8602 C   0  0  0  0  0  0  0  0  0  0  0  0
  177.3187   20.5850   47.4681 C   0  0  0  0  0  0  0  0  0  0  0  0
  178.6944   21.0953   47.2787 C   0  0  0  0  0  0  0  0  0  0  0  0
  179.7614   20.4893   46.4963 C   0  0  0  0  0  0  0  0  0  0  0  0
  179.8811   19.3224   45.7017 C   0  0  0  0  0  0  0  0  0  0  0  0
  181.1848   17.8446   44.2511 C   0  0  0  0  0  0  0  0  0  0  0  0
  181.4492   15.9811   41.2802 C   0  0  0  0  0  0  0  0  0  0  0  0
  182.1890   19.8632   45.1963 C   0  0  0  0  0  0  0  0  0  0  0  0
  180.8868   21.3031   46.6004 C   0  0  0  0  0  0  0  0  0  0  0  0
  177.1841   23.5383   48.5395 C   0  0  0  0  0  0  0  0  0  0  0  0
  176.4577   22.3532   49.1546 C   0  0  0  0  0  0  0  0  0  0  0  0
  181.2474   16.8533   43.5750 C   0  0  0  0  0  0  0  0  0  0  0  0
  181.3099   15.6311   42.7577 C   0  0  0  0  0  0  0  0  0  0  0  0
  180.0735   14.7651   42.9932 C   0  0  0  0  0  0  0  0  0  0  0  0
  182.1073   21.0219   45.9726 C   0  0  0  0  0  0  0  0  0  0  0  0
  179.2241   22.2746   47.7957 C   0  0  0  0  0  0  0  0  0  0  0  0
  178.6862   23.3719   48.6454 C   0  0  0  0  0  0  0  0  0  0  0  0
  176.3413   21.1481   48.2746 C   0  0  0  0  0  0  0  0  0  0  0  0
  175.1420   20.4479   48.3027 C   0  0  0  0  0  0  0  0  0  0  0  0
  181.0891   19.0221   45.0580 C   0  0  0  0  0  0  0  0  0  0  0  0
  175.6797   17.6936   46.1723 N   0  0  0  0  0  0  0  0  0  0  0  0
  180.5374   22.3610   47.3937 N   0  0  0  0  0  0  0  0  0  0  0  0
  182.4606   14.8736   43.1334 O   0  0  0  0  0  0  0  0  0  0  0  0
  2  3  4  0
  1  3  4  0
  2  4  4  0
  4  5  1  0
  5  6  4  0
  6  7  4  0
  6 11  4  0
 12 13  1  0
  8 14  3  0
  9 15  1  0
 14 15  1  0
 15 16  1  0
 10 17  4  0
 11 17  4  0
  5 18  4  0
 18 19  1  0
 12 19  1  0
  4 20  4  0
 13 20  1  0
  1 21  4  0
 20 21  4  0
  8 22  1  0
 10 22  4  0
  7 22  4  0
  3 23  1  0
 11 24  4  0
 18 24  4  0
 15 25  1  0
M  END
