7XG5_PLP_A_401
     RDKit          3D

 26 26  0  0  0  0  0  0  0  0999 V2000
   -1.4256    1.2845    1.3587 N   0  0  0  0  0  0  0  0  0  0  0  0
   -1.4556    0.0820    1.9871 C   0  0  0  0  0  0  0  0  0  0  0  0
   -2.4849   -0.1614    3.0483 C   0  0  0  0  0  0  0  0  0  0  0  0
   -0.5071   -0.9023    1.6654 C   0  0  0  0  0  0  0  0  0  0  0  0
   -0.5213   -2.1037    2.3823 O   0  0  0  0  0  0  0  0  0  0  0  0
    0.4481   -0.6407    0.6522 C   0  0  0  0  0  0  0  0  0  0  0  0
    1.4175   -1.6819    0.2514 C   0  0  0  0  0  0  0  0  0  0  0  0
    1.0356   -2.8571    0.0082 O   0  0  0  0  0  0  0  0  0  0  0  0
    0.4497    0.6292    0.0193 C   0  0  0  0  0  0  0  0  0  0  0  0
   -0.5088    1.5767    0.4045 C   0  0  0  0  0  0  0  0  0  0  0  0
    1.3972    1.0002   -1.1045 C   0  0  0  0  0  0  0  0  0  0  0  0
    0.6908    1.2634   -2.2983 O   0  0  0  0  0  0  0  0  0  0  0  0
    0.3579   -0.2048   -3.1078 P   0  0  0  0  0  5  0  0  0  0  0  0
   -0.6647   -1.0054   -2.3324 O   0  0  0  0  0  0  0  0  0  0  0  0
    1.7717   -1.1179   -3.2954 O   0  0  0  0  0  0  0  0  0  0  0  0
   -0.2684    0.1490   -4.6391 O   0  0  0  0  0  0  0  0  0  0  0  0
   -3.0679   -1.0752    2.8071 H   0  0  0  0  0  0  0  0  0  0  0  0
   -3.1869    0.6967    3.1163 H   0  0  0  0  0  0  0  0  0  0  0  0
   -1.9860   -0.2917    4.0315 H   0  0  0  0  0  0  0  0  0  0  0  0
    0.1968   -2.8110    2.3025 H   0  0  0  0  0  0  0  0  0  0  0  0
    2.4640   -1.4385    0.1321 H   0  0  0  0  0  0  0  0  0  0  0  0
   -0.5363    2.5502   -0.0688 H   0  0  0  0  0  0  0  0  0  0  0  0
    2.2282    0.2826   -1.2569 H   0  0  0  0  0  0  0  0  0  0  0  0
    1.9078    1.9407   -0.8076 H   0  0  0  0  0  0  0  0  0  0  0  0
    1.4857   -1.9290   -3.7866 H   0  0  0  0  0  0  0  0  0  0  0  0
   -1.0429    0.7412   -4.4644 H   0  0  0  0  0  0  0  0  0  0  0  0
  1  2  2  0
  2  3  1  0
  2  4  1  0
  4  5  1  0
  4  6  2  0
  6  7  1  0
  7  8  2  0
  6  9  1  0
  1 10  1  0
  9 10  2  0
  9 11  1  0
 11 12  1  0
 12 13  1  0
 13 14  2  0
 13 15  1  0
 13 16  1  0
  3 17  1  0
  3 18  1  0
  3 19  1  0
  5 20  1  0
  7 21  1  0
 10 22  1  0
 11 23  1  0
 11 24  1  0
 15 25  1  0
 16 26  1  0
M  END
