6Z1C_7EY_A_501
     RDKit          3D

 22 24  0  0  0  0  0  0  0  0999 V2000
    6.6523   -3.4015   20.3221 C   0  0  0  0  0  0  0  0  0  0  0  0
    7.5970   -4.1561   21.0348 C   0  0  0  0  0  0  0  0  0  0  0  0
    8.8885   -3.7941   21.1277 C   0  0  0  0  0  0  0  0  0  0  0  0
    9.2979   -2.6887   20.4904 N   0  0  0  0  0  0  0  0  0  0  0  0
    7.0489   -2.2961   19.7142 N   0  0  0  0  0  0  0  0  0  0  0  0
   13.5255   -7.0177   22.3323 O   0  0  0  0  0  0  0  0  0  0  0  0
   12.5860   -6.1784   22.2924 C   0  0  0  0  0  0  0  0  0  0  0  0
   11.5316   -6.3689   22.9547 O   0  0  0  0  0  0  0  0  0  0  0  0
   12.7793   -4.9375   21.4243 C   0  0  0  0  0  0  0  0  0  0  0  0
   11.7034   -3.8723   21.6296 C   0  0  0  0  0  0  0  0  0  0  0  0
   10.1457   -4.6788   22.0847 S   0  0  0  0  0  0  0  0  0  0  0  0
    8.3700   -1.9301   19.7940 C   0  0  0  0  0  0  0  0  0  0  0  0
    5.2494   -4.1114   20.4921 S   0  0  0  0  0  0  0  0  0  0  0  0
    5.5039   -5.4020   21.3323 C   0  0  0  0  0  0  0  0  0  0  0  0
    6.8998   -5.4214   21.7016 C   0  0  0  0  0  0  0  0  0  0  0  0
    7.3495   -6.6140   22.5286 C   0  0  0  0  0  0  0  0  0  0  0  0
    6.6024   -7.2459   23.4957 C   0  0  0  0  0  0  0  0  0  0  0  0
    7.1625   -8.3095   24.1804 C   0  0  0  0  0  0  0  0  0  0  0  0
    8.4553   -8.7298   23.9297 C   0  0  0  0  0  0  0  0  0  0  0  0
    9.0342   -9.9089   24.7055 C   0  0  0  0  0  0  0  0  0  0  0  0
    9.2081   -8.0907   22.9654 C   0  0  0  0  0  0  0  0  0  0  0  0
    8.6503   -7.0346   22.2816 C   0  0  0  0  0  0  0  0  0  0  0  0
  1  2  1  0
  2  3  2  0
  3  4  1  0
  1  5  2  0
  6  7  2  0
  7  8  1  0
  7  9  1  0
  9 10  1  0
  3 11  1  0
 10 11  1  0
  4 12  2  0
  5 12  1  0
  1 13  1  0
 13 14  1  0
  2 15  1  0
 14 15  2  0
 15 16  1  0
 16 17  2  0
 17 18  1  0
 18 19  2  0
 19 20  1  0
 19 21  1  0
 16 22  1  0
 21 22  2  0
M  END
