
     RDKit          3D

 38 43  0  0  0  0  0  0  0  0999 V2000
   -4.3469   16.5141   -0.6448 C   0  0  0  0  0  0  0  0  0  0  0  0
   -4.9253   15.1037   -0.7256 C   0  0  0  0  0  0  0  0  0  0  0  0
   -6.3944   15.0904   -0.2810 C   0  0  0  0  0  0  0  0  0  0  0  0
   -6.9095   13.6999    0.1052 C   0  0  0  0  0  0  0  0  0  0  0  0
   -6.0785   12.5621   -0.5130 C   0  0  0  0  0  0  0  0  0  0  0  0
   -4.6105   12.6775   -0.0432 C   0  0  0  0  0  0  0  0  0  0  0  0
   -4.1112   14.1181    0.1115 C   0  0  0  0  0  0  0  0  0  0  0  0
   -6.6745   11.1623   -0.1846 C   0  0  2  0  0  0  0  0  0  0  0  0
   -8.3560   10.6431   -2.0269 C   0  0  0  0  0  0  0  0  0  0  0  0
   -9.6822    9.9820   -4.2910 C   0  0  0  0  0  0  0  0  0  0  0  0
  -10.4420   10.1046   -3.1484 C   0  0  0  0  0  0  0  0  0  0  0  0
   -9.7356   10.4479   -1.9982 C   0  0  0  0  0  0  0  0  0  0  0  0
   -9.2147   10.9537    0.0287 C   0  0  0  0  0  0  0  0  0  0  0  0
  -10.8695    9.5226    2.1010 C   0  0  0  0  0  0  0  0  0  0  0  0
  -11.1691    8.8066    3.4034 C   0  0  0  0  0  0  0  0  0  0  0  0
  -10.5705   13.5936    1.2525 C   0  0  0  0  0  0  0  0  0  0  0  0
  -11.3111    8.3354   -6.9744 C   0  0  0  0  0  0  0  0  0  0  0  0
   -6.2341   10.7495   -3.4319 C   0  0  0  0  0  0  0  0  0  0  0  0
   -5.3292    9.6896   -3.5824 C   0  0  0  0  0  0  0  0  0  0  0  0
   -3.9784    9.9585   -3.7808 C   0  0  0  0  0  0  0  0  0  0  0  0
   -3.5643   11.2807   -3.8151 C   0  0  0  0  0  0  0  0  0  0  0  0
   -5.7109   12.0420   -3.4600 C   0  0  0  0  0  0  0  0  0  0  0  0
   -5.7520    9.9797   -0.5121 C   0  0  0  0  0  0  0  0  0  0  0  0
   -8.0301   10.9301   -0.6998 N   0  0  0  0  0  0  0  0  0  0  0  0
   -7.6525   10.5186   -3.2354 C   0  0  0  0  0  0  0  0  0  0  0  0
   -8.3409   10.1770   -4.3570 N   0  0  0  0  0  0  0  0  0  0  0  0
  -10.2371   10.6504   -0.7506 N   0  0  0  0  0  0  0  0  0  0  0  0
   -9.3611   11.2807    1.5010 C   0  0  2  0  0  0  0  0  0  0  0  0
   -9.5352   10.0174    2.1575 O   0  0  0  0  0  0  0  0  0  0  0  0
  -10.5451   12.1770    1.7811 C   0  0  0  0  0  0  0  0  0  0  0  0
  -10.4471   13.3512    2.7289 C   0  0  0  0  0  0  0  0  0  0  0  0
  -10.3244    9.6291   -5.5677 C   0  0  0  0  0  0  0  0  0  0  0  0
  -10.7911    8.3856   -5.7418 N   0  0  0  0  0  0  0  0  0  0  0  0
  -11.8287    7.3619   -7.4974 O   0  0  0  0  0  0  0  0  0  0  0  0
  -11.1623    9.5713   -7.5574 O   0  0  0  0  0  0  0  0  0  0  0  0
  -10.5024   10.3987   -6.5897 N   0  0  0  0  0  0  0  0  0  0  0  0
   -2.8593    8.6762   -3.9952 Cl  0  0  0  0  0  0  0  0  0  0  0  0
   -4.4028   12.3331   -3.6620 N   0  0  0  0  0  0  0  0  0  0  0  0
  2  1  1  0
  2  3  1  0
  3  4  1  0
  5  4  1  0
  5  6  1  0
  6  7  1  0
  2  7  1  0
  5  8  1  0
 10 11  4  0
 11 12  4  0
  9 12  4  0
 14 15  1  0
 18 19  4  0
 19 20  4  0
 20 21  4  0
 18 22  4  0
  8 23  1  6
  9 24  4  0
 13 24  4  0
  8 24  1  0
 18 25  1  0
  9 25  4  0
 10 26  4  0
 25 26  4  0
 12 27  4  0
 13 27  4  0
 13 28  1  0
 28 29  1  1
 14 29  1  0
 16 30  1  0
 28 30  1  0
 16 31  1  0
 30 31  1  0
 10 32  1  0
 17 33  4  0
 32 33  4  0
 17 34  2  0
 17 35  4  0
 35 36  4  0
 32 36  4  0
 20 37  1  0
 21 38  4  0
 22 38  4  0
M  END
