7JHQ_VAJ_A_301
     RDKit          3D

 18 19  0  0  0  0  0  0  0  0999 V2000
   33.3159  -56.5666    6.8283 C   0  0  0  0  0  0  0  0  0  0  0  0
   33.8540  -57.5255    7.6784 C   0  0  0  0  0  0  0  0  0  0  0  0
   34.7567  -58.4606    7.2066 C   0  0  0  0  0  0  0  0  0  0  0  0
   35.1553  -58.4731    5.8731 C   0  0  0  0  0  0  0  0  0  0  0  0
   36.1425  -59.4638    5.3740 C   0  0  0  0  0  0  0  0  0  0  0  0
   37.1380  -60.7062    3.5551 C   0  0  0  0  0  0  0  0  0  0  0  0
   38.0172  -61.3106    4.4351 C   0  0  0  0  0  0  0  0  0  0  0  0
   38.9489  -61.6219    6.7296 C   0  0  0  0  0  0  0  0  0  0  0  0
   32.3666  -55.5428    7.3437 C   0  0  0  0  0  0  0  0  0  0  0  0
   31.6500  -54.9529    6.4306 O   0  0  0  0  0  0  0  0  0  0  0  0
   37.9765  -61.0016    5.7887 C   0  0  0  0  0  0  0  0  0  0  0  0
   37.0350  -60.0853    6.2504 C   0  0  0  0  0  0  0  0  0  0  0  0
   34.6062  -57.5113    5.0253 C   0  0  0  0  0  0  0  0  0  0  0  0
   33.7015  -56.5746    5.4919 C   0  0  0  0  0  0  0  0  0  0  0  0
   36.2098  -59.7886    4.0182 C   0  0  0  0  0  0  0  0  0  0  0  0
   32.2824  -55.2846    8.5361 O   0  0  0  0  0  0  0  0  0  0  0  0
   39.9975  -61.0633    7.0204 O   0  0  0  0  0  0  0  0  0  0  0  0
   38.5982  -62.7852    7.2079 O   0  0  0  0  0  0  0  0  0  0  0  0
  1  2  2  0
  2  3  1  0
  3  4  2  0
  4  5  1  0
  6  7  2  0
  1  9  1  0
  9 10  2  0
  7 11  1  0
  8 11  1  0
  5 12  1  0
 11 12  2  0
  4 13  1  0
  1 14  1  0
 13 14  2  0
  5 15  2  0
  6 15  1  0
  9 16  1  0
  8 17  2  0
  8 18  1  0
M  END
