6ZX3_QRZ_A_501
     RDKit          3D

 24 25  0  0  0  0  0  0  0  0999 V2000
   15.6170   10.2140   38.0080 C   0  0  0  0  0  0  0  0  0  0  0  0
   14.2780    9.7880   34.5500 C   0  0  0  0  0  0  0  0  0  0  0  0
   13.3790   12.6000   42.8800 O   0  0  0  0  0  0  0  0  0  0  0  0
   12.2230   13.3300   42.2460 P   0  0  0  0  0  0  0  0  0  0  0  0
   12.5530   14.7810   41.9250 O   0  0  0  0  0  0  0  0  0  0  0  0
   10.9400   13.2000   43.0250 O   0  0  0  0  0  0  0  0  0  0  0  0
   11.8530   12.6330   40.8600 O   0  0  0  0  0  0  0  0  0  0  0  0
   12.8430   12.3700   39.8840 C   0  0  0  0  0  0  0  0  0  0  0  0
   12.1370   11.8420   38.6500 C   0  0  2  0  0  0  0  0  0  0  0  0
   11.5180   10.4710   38.8370 C   0  0  1  0  0  0  0  0  0  0  0  0
   10.2730   10.3620   38.1090 O   0  0  0  0  0  0  0  0  0  0  0  0
   12.5730    9.5250   38.3150 C   0  0  1  0  0  0  0  0  0  0  0  0
   11.9250    8.3640   37.8300 O   0  0  0  0  0  0  0  0  0  0  0  0
   13.0590   11.7140   37.5650 O   0  0  0  0  0  0  0  0  0  0  0  0
   13.2390   10.3380   37.1980 C   0  0  1  0  0  0  0  0  0  0  0  0
   14.6830   10.0910   36.9770 N   0  0  0  0  0  0  0  0  0  0  0  0
   15.1530    9.6680   35.7170 C   0  0  0  0  0  0  0  0  0  0  0  0
   16.4810    9.3150   35.5210 C   0  0  0  0  0  0  0  0  0  0  0  0
   17.3500    9.4840   36.5830 C   0  0  0  0  0  0  0  0  0  0  0  0
   18.5950    9.2870   36.4930 O   0  0  0  0  0  0  0  0  0  0  0  0
   16.9030    9.9260   37.7810 N   0  0  0  0  0  0  0  0  0  0  0  0
   15.2650   10.6390   39.1230 O   0  0  0  0  0  0  0  0  0  0  0  0
   13.9820   11.1660   33.7980 S   0  0  0  0  0  0  0  0  0  0  0  0
   13.8520    8.5990   34.1300 N   0  0  0  0  0  0  0  0  0  0  0  0
  3  4  1  0
  4  5  2  0
  4  6  1  0
  4  7  1  0
  7  8  1  0
  9  8  1  1
  9 10  1  0
 10 11  1  6
 10 12  1  0
 12 13  1  6
  9 14  1  0
 14 15  1  0
 12 15  1  0
 15 16  1  1
  1 16  1  0
  2 17  1  0
 16 17  1  0
 17 18  2  0
 18 19  1  0
 19 20  2  0
 19 21  1  0
  1 21  1  0
  1 22  2  0
  2 23  2  0
  2 24  1  0
M  END
$$$$
