7RSV_7IQ_B_901
     RDKit          3D

 20 23  0  0  0  0  0  0  0  0999 V2000
   16.1692  -35.6802   24.6411 C   0  0  0  0  0  0  0  0  0  0  0  0
   16.7402  -34.2571   17.8601 C   0  0  2  0  0  0  0  0  0  0  0  0
   16.4363  -33.3872   24.9212 C   0  0  0  0  0  0  0  0  0  0  0  0
   16.9530  -32.6128   19.6650 C   0  0  0  0  0  0  0  0  0  0  0  0
   17.4567  -33.6597   23.8395 C   0  0  0  0  0  0  0  0  0  0  0  0
   16.8584  -33.9090   21.4298 C   0  0  0  0  0  0  0  0  0  0  0  0
   16.9867  -32.5911   21.0432 C   0  0  0  0  0  0  0  0  0  0  0  0
   14.8255  -35.8409   22.5827 C   0  0  0  0  0  0  0  0  0  0  0  0
   18.0245  -34.7710   17.2668 C   0  0  0  0  0  0  0  0  0  0  0  0
   17.5971  -34.8624   15.7949 C   0  0  0  0  0  0  0  0  0  0  0  0
   16.9833  -33.5063   15.5837 C   0  0  0  0  0  0  0  0  0  0  0  0
   16.4181  -33.1102   16.9549 C   0  0  2  0  0  0  0  0  0  0  0  0
   16.2094  -35.6641   23.1075 C   0  0  1  0  0  0  0  0  0  0  0  0
   17.0457  -31.5091   18.7079 C   0  0  0  0  0  0  0  0  0  0  0  0
   16.8091  -33.9027   19.2417 N   0  0  0  0  0  0  0  0  0  0  0  0
   16.7576  -34.6352   20.3247 N   0  0  0  0  0  0  0  0  0  0  0  0
   16.9784  -31.8513   17.3320 N   0  0  0  0  0  0  0  0  0  0  0  0
   16.8369  -34.4084   22.7608 N   0  0  0  0  0  0  0  0  0  0  0  0
   17.1766  -30.3316   19.0738 O   0  0  0  0  0  0  0  0  0  0  0  0
   15.6061  -34.4699   25.1044 O   0  0  0  0  0  0  0  0  0  0  0  0
  3  5  1  0
  4  7  2  0
  6  7  1  0
  9  2  1  6
 10  9  1  1
 11 10  1  6
 12 11  1  0
  2 12  1  0
  8 13  1  6
  1 13  1  0
  4 14  1  0
  2 15  1  1
  4 15  1  0
 15 16  1  0
  6 16  2  0
 12 17  1  1
 14 17  1  0
  6 18  1  0
  5 18  1  1
 13 18  1  1
 14 19  2  0
  3 20  1  1
  1 20  1  6
M  END
$$$$
