
     RDKit          3D

 16 15  0  0  0  0  0  0  0  0999 V2000
   20.2096   28.9734  -35.4653 P   0  0  0  0  0  5  0  0  0  0  0  0
   20.2385   30.2700  -34.7291 O   0  0  0  0  0  0  0  0  0  0  0  0
   19.0751   27.9589  -34.9590 O   0  0  0  0  0  0  0  0  0  0  0  0
   19.7838   29.1445  -37.0030 O   0  0  0  0  0  0  0  0  0  0  0  0
   21.7213   28.0484  -35.5286 C   0  0  0  0  0  0  0  0  0  0  0  0
   22.3524   27.9876  -34.1731 C   0  0  0  0  0  0  0  0  0  0  0  0
   22.5196   26.9191  -33.5895 O   0  0  0  0  0  0  0  0  0  0  0  0
   22.7588   29.2006  -33.6712 N   0  0  0  0  0  0  0  0  0  0  0  0
   23.0211   29.4262  -32.2415 C   0  0  2  0  0  0  0  0  0  0  0  0
   21.6882   29.5376  -31.4918 C   0  0  0  0  0  0  0  0  0  0  0  0
   20.7610   28.7420  -31.5571 O   0  0  0  0  0  0  0  0  0  0  0  0
   21.6182   30.5707  -30.6309 O   0  0  0  0  0  0  0  0  0  0  0  0
   23.9884   30.5769  -31.9554 C   0  0  0  0  0  0  0  0  0  0  0  0
   23.6113   31.7958  -32.7438 C   0  0  0  0  0  0  0  0  0  0  0  0
   22.4928   32.1298  -33.0965 O   0  0  0  0  0  0  0  0  0  0  0  0
   24.6878   32.5274  -33.0906 O   0  0  0  0  0  0  0  0  0  0  0  0
  1  2  2  0
  1  3  1  0
  1  4  1  0
  1  5  1  0
  5  6  1  0
  6  7  2  0
  6  8  1  0
  8  9  1  0
  9 10  1  0
 10 11  2  0
 10 12  1  0
  9 13  1  6
 13 14  1  0
 14 15  2  0
 14 16  1  0
M  END
