7K0V_VQP_A_801
     RDKit          3D

 59 61  0  0  0  0  0  0  0  0999 V2000
   -2.9267    1.2104   -0.4831 C   0  0  0  0  0  0  0  0  0  0  0  0
   -1.8014    0.3922   -0.6749 C   0  0  0  0  0  0  0  0  0  0  0  0
   -0.5330    0.9790   -0.7619 C   0  0  0  0  0  0  0  0  0  0  0  0
   -0.3681    2.3682   -0.6255 C   0  0  0  0  0  0  0  0  0  0  0  0
    1.6728    2.0105   -2.8342 C   0  0  0  0  0  0  0  0  0  0  0  0
    4.3663    2.2415   -2.0660 C   0  0  0  0  0  0  0  0  0  0  0  0
    8.1119    2.0280   -2.3108 C   0  0  0  0  0  0  0  0  0  0  0  0
   -3.5287   -4.1685    0.6970 C   0  0  0  0  0  0  0  0  0  0  0  0
   -3.2577   -5.4530    2.9618 C   0  0  0  0  0  0  0  0  0  0  0  0
   -1.3646    4.6703   -0.2319 C   0  0  0  0  0  0  0  0  0  0  0  0
    2.6839    1.6209   -3.7120 C   0  0  0  0  0  0  0  0  0  0  0  0
    4.0244    1.7326   -3.3348 C   0  0  0  0  0  0  0  0  0  0  0  0
    3.3377    2.6384   -1.1819 C   0  0  0  0  0  0  0  0  0  0  0  0
    5.7364    2.3315   -1.7406 C   0  0  0  0  0  0  0  0  0  0  0  0
    6.3097    1.4497   -3.8668 C   0  0  0  0  0  0  0  0  0  0  0  0
   -1.5007    3.1813   -0.3997 C   0  0  0  0  0  0  0  0  0  0  0  0
   -2.7047   -1.8514    0.0590 C   0  0  0  0  0  0  0  0  0  0  0  0
   -2.6459   -4.4654    1.9233 C   0  0  0  0  0  0  0  0  0  0  0  0
   -3.4983   -6.8420    2.3330 C   0  0  0  0  0  0  0  0  0  0  0  0
   -2.7730    2.5907   -0.3348 C   0  0  0  0  0  0  0  0  0  0  0  0
   -2.2537   -5.6106    4.1237 C   0  0  0  0  0  0  0  0  0  0  0  0
   -4.5846   -4.9086    3.5329 C   0  0  0  0  0  0  0  0  0  0  0  0
    1.9888    2.5106   -1.5597 C   0  0  0  0  0  0  0  0  0  0  0  0
    3.6322    3.1321    0.0490 F   0  0  0  0  0  0  0  0  0  0  0  0
   -4.1764    0.6822   -0.4789 F   0  0  0  0  0  0  0  0  0  0  0  0
    6.6852    1.9281   -2.6442 N   0  0  0  0  0  0  0  0  0  0  0  0
    4.9984    1.3548   -4.1975 N   0  0  0  0  0  0  0  0  0  0  0  0
   -1.9273   -1.0306   -0.8248 N   0  0  0  0  0  0  0  0  0  0  0  0
   -2.8371   -3.2539   -0.2100 N   0  0  0  0  0  0  0  0  0  0  0  0
    0.9513    2.9431   -0.6606 N   0  0  0  0  0  0  0  0  0  0  0  0
    6.0936    2.7843   -0.6170 O   0  0  0  0  0  0  0  0  0  0  0  0
   -3.2442   -1.3506    1.0835 O   0  0  0  0  0  0  0  0  0  0  0  0
    0.3334    0.3449   -0.9045 H   0  0  0  0  0  0  0  0  0  0  0  0
    0.6425    1.9379   -3.1576 H   0  0  0  0  0  0  0  0  0  0  0  0
    8.7543    1.5922   -3.1065 H   0  0  0  0  0  0  0  0  0  0  0  0
    8.3196    1.4784   -1.3679 H   0  0  0  0  0  0  0  0  0  0  0  0
    8.3929    3.0947   -2.1818 H   0  0  0  0  0  0  0  0  0  0  0  0
   -3.7401   -5.1104    0.1490 H   0  0  0  0  0  0  0  0  0  0  0  0
   -4.4975   -3.7190    0.9994 H   0  0  0  0  0  0  0  0  0  0  0  0
   -0.8904    4.8928    0.7468 H   0  0  0  0  0  0  0  0  0  0  0  0
   -2.3526    5.1770   -0.2664 H   0  0  0  0  0  0  0  0  0  0  0  0
   -0.7390    5.0897   -1.0481 H   0  0  0  0  0  0  0  0  0  0  0  0
    2.4225    1.2374   -4.6907 H   0  0  0  0  0  0  0  0  0  0  0  0
    7.0515    1.1374   -4.5911 H   0  0  0  0  0  0  0  0  0  0  0  0
   -1.6767   -4.8741    1.5587 H   0  0  0  0  0  0  0  0  0  0  0  0
   -2.4172   -3.5043    2.4333 H   0  0  0  0  0  0  0  0  0  0  0  0
   -3.8105   -7.5729    3.1101 H   0  0  0  0  0  0  0  0  0  0  0  0
   -4.3047   -6.8068    1.5705 H   0  0  0  0  0  0  0  0  0  0  0  0
   -2.5704   -7.2203    1.8521 H   0  0  0  0  0  0  0  0  0  0  0  0
   -3.6535    3.2022   -0.1797 H   0  0  0  0  0  0  0  0  0  0  0  0
   -2.0650   -4.6316    4.6154 H   0  0  0  0  0  0  0  0  0  0  0  0
   -2.6426   -6.3131    4.8925 H   0  0  0  0  0  0  0  0  0  0  0  0
   -1.2840   -6.0072    3.7530 H   0  0  0  0  0  0  0  0  0  0  0  0
   -5.3819   -4.8978    2.7606 H   0  0  0  0  0  0  0  0  0  0  0  0
   -4.9423   -5.5491    4.3679 H   0  0  0  0  0  0  0  0  0  0  0  0
   -4.4501   -3.8753    3.9193 H   0  0  0  0  0  0  0  0  0  0  0  0
   -1.2936   -1.5109   -1.5026 H   0  0  0  0  0  0  0  0  0  0  0  0
   -2.4483   -3.6351   -1.1008 H   0  0  0  0  0  0  0  0  0  0  0  0
    1.1745    3.7046    0.0184 H   0  0  0  0  0  0  0  0  0  0  0  0
  1  2  2  0
  2  3  1  0
  3  4  2  0
  5 11  2  0
 11 12  1  0
  6 12  2  0
  6 13  1  0
  6 14  1  0
  4 16  1  0
 10 16  1  0
  9 18  1  0
  8 18  1  0
  9 19  1  0
  1 20  1  0
 16 20  2  0
  9 21  1  0
  9 22  1  0
  5 23  1  0
 13 23  2  0
 13 24  1  0
  1 25  1  0
 14 26  1  0
 15 26  1  0
  7 26  1  0
 12 27  1  0
 15 27  2  0
 17 28  1  0
  2 28  1  0
  8 29  1  0
 17 29  1  0
  4 30  1  0
 23 30  1  0
 14 31  2  0
 17 32  2  0
  3 33  1  0
  5 34  1  0
  7 35  1  0
  7 36  1  0
  7 37  1  0
  8 38  1  0
  8 39  1  0
 10 40  1  0
 10 41  1  0
 10 42  1  0
 11 43  1  0
 15 44  1  0
 18 45  1  0
 18 46  1  0
 19 47  1  0
 19 48  1  0
 19 49  1  0
 20 50  1  0
 21 51  1  0
 21 52  1  0
 21 53  1  0
 22 54  1  0
 22 55  1  0
 22 56  1  0
 28 57  1  0
 29 58  1  0
 30 59  1  0
M  END
