7E2S_BLA_A_301
     RDKit          3D

 77 80  0  0  0  0  0  0  0  0999 V2000
   -4.2981  -23.4860  -18.0311 C   0  0  0  0  0  0  0  0  0  0  0  0
   -5.1369  -21.3207  -19.0063 N   0  0  0  0  0  4  0  0  0  0  0  0
   -4.3284  -21.9899  -18.1646 C   0  0  0  0  0  0  0  0  0  0  0  0
   -3.5482  -21.0879  -17.4694 C   0  0  0  0  0  0  0  0  0  0  0  0
   -3.8891  -19.8568  -17.9072 C   0  0  0  0  0  0  0  0  0  0  0  0
   -4.8835  -20.0112  -18.8472 C   0  0  0  0  0  0  0  0  0  0  0  0
   -3.3121  -18.5198  -17.4386 C   0  0  0  0  0  0  0  0  0  0  0  0
   -2.4958  -21.4299  -16.4119 C   0  0  0  0  0  0  0  0  0  0  0  0
   -1.2950  -22.1110  -17.0536 C   0  0  0  0  0  0  0  0  0  0  0  0
   -1.6598  -23.5012  -17.5814 C   0  0  0  0  0  0  0  0  0  0  0  0
   -2.3804  -23.6049  -18.6076 O   0  0  0  0  0  0  0  0  0  0  0  0
   -1.2533  -24.5456  -17.0130 O   0  0  0  0  0  0  0  0  0  0  0  0
   -5.5065  -18.8934  -19.6297 C   0  0  0  0  0  0  0  0  0  0  0  0
   -4.9837  -19.8148  -21.9082 N   0  0  0  0  0  0  0  0  0  0  0  0
   -5.4814  -18.8048  -20.9224 C   0  0  0  0  0  0  0  0  0  0  0  0
   -5.9833  -17.6787  -21.7173 C   0  0  0  0  0  0  0  0  0  0  0  0
   -5.8359  -17.9356  -23.0860 C   0  0  0  0  0  0  0  0  0  0  0  0
   -5.2263  -19.2795  -23.2897 C   0  0  0  0  0  0  0  0  0  0  0  0
   -6.5542  -16.4201  -21.1054 C   0  0  0  0  0  0  0  0  0  0  0  0
   -4.9496  -19.8668  -24.2789 O   0  0  0  0  0  0  0  0  0  0  0  0
   -6.2621  -16.9976  -24.1978 C   0  0  0  0  0  0  0  0  0  0  0  0
   -5.6482  -17.0003  -25.3535 C   0  0  0  0  0  0  0  0  0  0  0  0
   -4.4071  -22.6868  -22.9391 N   0  0  0  0  0  0  0  0  0  0  0  0
   -4.4526  -21.6745  -24.0433 C   0  0  0  0  0  0  0  0  0  0  0  0
   -5.1970  -22.3224  -25.1447 C   0  0  0  0  0  0  0  0  0  0  0  0
   -5.5558  -23.6387  -24.7922 C   0  0  0  0  0  0  0  0  0  0  0  0
   -5.0860  -23.9392  -23.4253 C   0  0  0  0  0  0  0  0  0  0  0  0
   -5.5072  -21.6598  -26.4744 C   0  0  0  0  0  0  0  0  0  0  0  0
   -3.9880  -20.6002  -23.9590 O   0  0  0  0  0  0  0  0  0  0  0  0
   -6.3615  -24.5592  -25.7088 C   0  0  0  0  0  0  0  0  0  0  0  0
   -7.6400  -24.7616  -25.5524 C   0  0  0  0  0  0  0  0  0  0  0  0
   -5.2339  -25.0273  -22.7431 C   0  0  0  0  0  0  0  0  0  0  0  0
   -4.6702  -23.8703  -20.4744 N   0  0  0  0  0  0  0  0  0  0  0  0
   -4.9945  -25.0340  -21.2703 C   0  0  0  0  0  0  0  0  0  0  0  0
   -5.0655  -26.1916  -20.3933 C   0  0  0  0  0  0  0  0  0  0  0  0
   -4.7877  -25.7487  -19.0452 C   0  0  0  0  0  0  0  0  0  0  0  0
   -4.5555  -24.2633  -19.0545 C   0  0  0  0  0  0  0  0  0  0  0  0
   -5.3523  -27.6058  -20.8369 C   0  0  0  0  0  0  0  0  0  0  0  0
   -4.7566  -26.5955  -17.7961 C   0  0  0  0  0  0  0  0  0  0  0  0
   -3.7296  -27.7213  -17.9379 C   0  0  0  0  0  0  0  0  0  0  0  0
   -2.6324  -27.3880  -18.9482 C   0  0  0  0  0  0  0  0  0  0  0  0
   -2.6487  -26.2777  -19.5455 O   0  0  0  0  0  0  0  0  0  0  0  0
   -1.7099  -28.2091  -19.1783 O   0  0  0  0  0  0  0  0  0  0  0  0
   -4.0707  -23.9090  -17.1177 H   0  0  0  0  0  0  0  0  0  0  0  0
   -5.7927  -21.7173  -19.6242 H   0  0  0  0  0  0  0  0  0  0  0  0
   -2.5543  -18.6961  -16.7040 H   0  0  0  0  0  0  0  0  0  0  0  0
   -2.8865  -18.0029  -18.2732 H   0  0  0  0  0  0  0  0  0  0  0  0
   -4.0920  -17.9250  -17.0108 H   0  0  0  0  0  0  0  0  0  0  0  0
   -2.1744  -20.5296  -15.9313 H   0  0  0  0  0  0  0  0  0  0  0  0
   -2.9293  -22.0965  -15.6959 H   0  0  0  0  0  0  0  0  0  0  0  0
   -0.9470  -21.5096  -17.8672 H   0  0  0  0  0  0  0  0  0  0  0  0
   -0.5328  -22.2213  -16.3108 H   0  0  0  0  0  0  0  0  0  0  0  0
   -0.7160  -24.4838  -16.2479 H   0  0  0  0  0  0  0  0  0  0  0  0
   -5.9866  -18.1460  -19.1044 H   0  0  0  0  0  0  0  0  0  0  0  0
   -4.5689  -20.6803  -21.6888 H   0  0  0  0  0  0  0  0  0  0  0  0
   -6.5432  -16.5052  -20.0389 H   0  0  0  0  0  0  0  0  0  0  0  0
   -5.9629  -15.5792  -21.4023 H   0  0  0  0  0  0  0  0  0  0  0  0
   -7.5609  -16.2847  -21.4420 H   0  0  0  0  0  0  0  0  0  0  0  0
   -7.0481  -16.3475  -24.0411 H   0  0  0  0  0  0  0  0  0  0  0  0
   -4.8613  -17.6473  -25.5183 H   0  0  0  0  0  0  0  0  0  0  0  0
   -5.9508  -16.3552  -26.1000 H   0  0  0  0  0  0  0  0  0  0  0  0
   -4.0036  -22.5557  -22.0508 H   0  0  0  0  0  0  0  0  0  0  0  0
   -5.1213  -20.6618  -26.4742 H   0  0  0  0  0  0  0  0  0  0  0  0
   -5.0520  -22.2180  -27.2658 H   0  0  0  0  0  0  0  0  0  0  0  0
   -6.5667  -21.6324  -26.6208 H   0  0  0  0  0  0  0  0  0  0  0  0
   -5.8744  -25.0392  -26.4816 H   0  0  0  0  0  0  0  0  0  0  0  0
   -8.1468  -24.2916  -24.7861 H   0  0  0  0  0  0  0  0  0  0  0  0
   -8.1450  -25.3917  -26.1950 H   0  0  0  0  0  0  0  0  0  0  0  0
   -5.5192  -25.8968  -23.2202 H   0  0  0  0  0  0  0  0  0  0  0  0
   -5.5190  -27.6212  -21.8937 H   0  0  0  0  0  0  0  0  0  0  0  0
   -4.5172  -28.2308  -20.5985 H   0  0  0  0  0  0  0  0  0  0  0  0
   -6.2242  -27.9677  -20.3330 H   0  0  0  0  0  0  0  0  0  0  0  0
   -4.4927  -25.9813  -16.9606 H   0  0  0  0  0  0  0  0  0  0  0  0
   -5.7243  -27.0265  -17.6456 H   0  0  0  0  0  0  0  0  0  0  0  0
   -3.2768  -27.8949  -16.9841 H   0  0  0  0  0  0  0  0  0  0  0  0
   -4.2453  -28.5893  -18.2921 H   0  0  0  0  0  0  0  0  0  0  0  0
   -1.6963  -29.0347  -18.7353 H   0  0  0  0  0  0  0  0  0  0  0  0
  1  3  1  0
  2  3  4  0
  3  4  4  0
  4  5  4  0
  2  6  4  0
  5  6  4  0
  5  7  1  0
  4  8  1  0
  8  9  1  0
  9 10  1  0
 10 11  2  0
 10 12  1  0
  6 13  1  0
 13 15  2  3
 14 15  1  0
 15 16  1  0
 16 17  2  0
 14 18  1  0
 17 18  1  0
 16 19  1  0
 18 20  2  0
 17 21  1  0
 21 22  2  3
 23 24  1  0
 24 25  1  0
 25 26  2  0
 23 27  1  0
 26 27  1  0
 25 28  1  0
 24 29  2  0
 26 30  1  0
 30 31  2  3
 27 32  2  3
 32 34  1  0
 33 34  2  0
 34 35  1  0
 35 36  2  0
  1 37  2  3
 33 37  1  0
 36 37  1  0
 35 38  1  0
 36 39  1  0
 39 40  1  0
 40 41  1  0
 41 42  2  0
 41 43  1  0
  1 44  1  0
  2 45  1  0
  7 46  1  0
  7 47  1  0
  7 48  1  0
  8 49  1  0
  8 50  1  0
  9 51  1  0
  9 52  1  0
 12 53  1  0
 13 54  1  0
 14 55  1  0
 19 56  1  0
 19 57  1  0
 19 58  1  0
 21 59  1  0
 22 60  1  0
 22 61  1  0
 23 62  1  0
 28 63  1  0
 28 64  1  0
 28 65  1  0
 30 66  1  0
 31 67  1  0
 31 68  1  0
 32 69  1  0
 38 70  1  0
 38 71  1  0
 38 72  1  0
 39 73  1  0
 39 74  1  0
 40 75  1  0
 40 76  1  0
 43 77  1  0
M  CHG  1   2   1
M  END
