7E2S_BLA_A_301
     RDKit          3D

 77 80  0  0  0  0  0  0  0  0999 V2000
    1.4036   -0.0788    2.1778 C   0  0  0  0  0  0  0  0  0  0  0  0
    0.0863    1.1837    0.4619 N   0  0  0  0  0  0  0  0  0  0  0  0
    1.2042    1.0103    1.1978 C   0  0  0  0  0  0  0  0  0  0  0  0
    2.1368    1.9885    0.8806 C   0  0  0  0  0  0  0  0  0  0  0  0
    1.5549    2.7833   -0.0977 C   0  0  0  0  0  0  0  0  0  0  0  0
    0.3031    2.2345   -0.3492 C   0  0  0  0  0  0  0  0  0  0  0  0
    2.1698    3.9857   -0.7504 C   0  0  0  0  0  0  0  0  0  0  0  0
    3.4912    2.1786    1.5080 C   0  0  0  0  0  0  0  0  0  0  0  0
    3.3881    3.0718    2.7472 C   0  0  0  0  0  0  0  0  0  0  0  0
    4.7230    3.2179    3.4077 C   0  0  0  0  0  0  0  0  0  0  0  0
    5.6381    3.8799    2.8454 O   0  0  0  0  0  0  0  0  0  0  0  0
    4.9527    2.6215    4.6453 O   0  0  0  0  0  0  0  0  0  0  0  0
   -0.6980    2.6998   -1.3235 C   0  0  0  0  0  0  0  0  0  0  0  0
    0.7884    2.4169   -3.2446 N   0  0  0  0  0  0  0  0  0  0  0  0
   -0.4405    2.8019   -2.6347 C   0  0  0  0  0  0  0  0  0  0  0  0
   -1.4070    3.1924   -3.6792 C   0  0  0  0  0  0  0  0  0  0  0  0
   -0.8248    3.0304   -4.8761 C   0  0  0  0  0  0  0  0  0  0  0  0
    0.5389    2.5443   -4.6336 C   0  0  0  0  0  0  0  0  0  0  0  0
   -2.8340    3.5979   -3.4454 C   0  0  0  0  0  0  0  0  0  0  0  0
    1.3734    2.2088   -5.5154 O   0  0  0  0  0  0  0  0  0  0  0  0
   -1.4893    3.2214   -6.1857 C   0  0  0  0  0  0  0  0  0  0  0  0
   -0.8202    3.3748   -7.3266 C   0  0  0  0  0  0  0  0  0  0  0  0
   -1.0269   -2.0652   -1.7255 N   0  0  0  0  0  0  0  0  0  0  0  0
   -1.8127   -1.9950   -2.9022 C   0  0  0  0  0  0  0  0  0  0  0  0
   -2.6827   -3.1590   -3.0122 C   0  0  0  0  0  0  0  0  0  0  0  0
   -2.4472   -3.9486   -1.9603 C   0  0  0  0  0  0  0  0  0  0  0  0
   -1.4420   -3.2812   -1.0979 C   0  0  0  0  0  0  0  0  0  0  0  0
   -3.6510   -3.4287   -4.1231 C   0  0  0  0  0  0  0  0  0  0  0  0
   -1.7402   -1.0522   -3.7352 O   0  0  0  0  0  0  0  0  0  0  0  0
   -3.1202   -5.2445   -1.7297 C   0  0  0  0  0  0  0  0  0  0  0  0
   -2.4659   -6.3183   -1.2937 C   0  0  0  0  0  0  0  0  0  0  0  0
   -1.0778   -3.6844    0.1355 C   0  0  0  0  0  0  0  0  0  0  0  0
    0.0916   -1.6812    0.8933 N   0  0  0  0  0  0  0  0  0  0  0  0
   -0.1893   -2.9319    1.0471 C   0  0  0  0  0  0  0  0  0  0  0  0
    0.3980   -3.4630    2.2886 C   0  0  0  0  0  0  0  0  0  0  0  0
    1.0627   -2.4650    2.8779 C   0  0  0  0  0  0  0  0  0  0  0  0
    0.8829   -1.3009    2.0097 C   0  0  0  0  0  0  0  0  0  0  0  0
    0.1557   -4.8340    2.8512 C   0  0  0  0  0  0  0  0  0  0  0  0
    1.7234   -2.4891    4.2317 C   0  0  0  0  0  0  0  0  0  0  0  0
    0.7055   -2.1981    5.3357 C   0  0  0  0  0  0  0  0  0  0  0  0
    1.3703   -2.2126    6.6752 C   0  0  0  0  0  0  0  0  0  0  0  0
    1.6611   -1.1275    7.2497 O   0  0  0  0  0  0  0  0  0  0  0  0
    1.6979   -3.4262    7.2713 O   0  0  0  0  0  0  0  0  0  0  0  0
    2.0571    0.1104    3.0181 H   0  0  0  0  0  0  0  0  0  0  0  0
   -0.7957    0.6260    0.5074 H   0  0  0  0  0  0  0  0  0  0  0  0
    2.6601    4.6220    0.0145 H   0  0  0  0  0  0  0  0  0  0  0  0
    1.3969    4.5946   -1.2634 H   0  0  0  0  0  0  0  0  0  0  0  0
    2.9301    3.6593   -1.4903 H   0  0  0  0  0  0  0  0  0  0  0  0
    3.9119    1.1882    1.7880 H   0  0  0  0  0  0  0  0  0  0  0  0
    4.1820    2.6364    0.7660 H   0  0  0  0  0  0  0  0  0  0  0  0
    3.0134    4.0789    2.4601 H   0  0  0  0  0  0  0  0  0  0  0  0
    2.6694    2.6288    3.4714 H   0  0  0  0  0  0  0  0  0  0  0  0
    5.8503    2.7096    5.1061 H   0  0  0  0  0  0  0  0  0  0  0  0
   -1.7044    2.8604   -0.9601 H   0  0  0  0  0  0  0  0  0  0  0  0
    1.6081    1.9427   -2.8043 H   0  0  0  0  0  0  0  0  0  0  0  0
   -3.1698    4.3180   -4.2188 H   0  0  0  0  0  0  0  0  0  0  0  0
   -2.9419    4.0973   -2.4604 H   0  0  0  0  0  0  0  0  0  0  0  0
   -3.4827    2.6996   -3.4724 H   0  0  0  0  0  0  0  0  0  0  0  0
   -2.5706    3.2578   -6.2259 H   0  0  0  0  0  0  0  0  0  0  0  0
    0.2589    3.3936   -7.3631 H   0  0  0  0  0  0  0  0  0  0  0  0
   -1.3628    3.5157   -8.2521 H   0  0  0  0  0  0  0  0  0  0  0  0
   -0.2329   -1.4321   -1.4896 H   0  0  0  0  0  0  0  0  0  0  0  0
   -3.4557   -4.4300   -4.5607 H   0  0  0  0  0  0  0  0  0  0  0  0
   -3.5499   -2.6654   -4.9231 H   0  0  0  0  0  0  0  0  0  0  0  0
   -4.6876   -3.3926   -3.7287 H   0  0  0  0  0  0  0  0  0  0  0  0
   -4.1647   -5.3429   -1.9888 H   0  0  0  0  0  0  0  0  0  0  0  0
   -1.4018   -6.2920   -1.1032 H   0  0  0  0  0  0  0  0  0  0  0  0
   -2.9923   -7.2544   -1.1639 H   0  0  0  0  0  0  0  0  0  0  0  0
   -1.4956   -4.6005    0.5245 H   0  0  0  0  0  0  0  0  0  0  0  0
    0.0836   -5.5741    2.0284 H   0  0  0  0  0  0  0  0  0  0  0  0
    0.9863   -5.1552    3.5115 H   0  0  0  0  0  0  0  0  0  0  0  0
   -0.7906   -4.8350    3.4309 H   0  0  0  0  0  0  0  0  0  0  0  0
    2.5382   -1.7359    4.2643 H   0  0  0  0  0  0  0  0  0  0  0  0
    2.2026   -3.4749    4.4062 H   0  0  0  0  0  0  0  0  0  0  0  0
   -0.0947   -2.9687    5.3242 H   0  0  0  0  0  0  0  0  0  0  0  0
    0.2332   -1.2064    5.1608 H   0  0  0  0  0  0  0  0  0  0  0  0
    2.1617   -3.4537    8.1710 H   0  0  0  0  0  0  0  0  0  0  0  0
  1  3  1  0
  2  3  1  0
  3  4  2  0
  4  5  1  0
  2  6  1  0
  5  6  2  0
  5  7  1  0
  4  8  1  0
  8  9  1  0
  9 10  1  0
 10 11  2  0
 10 12  1  0
  6 13  1  0
 13 15  2  0
 14 15  1  0
 15 16  1  0
 16 17  2  0
 14 18  1  0
 17 18  1  0
 16 19  1  0
 18 20  2  0
 17 21  1  0
 21 22  2  0
 23 24  1  0
 24 25  1  0
 25 26  2  0
 23 27  1  0
 26 27  1  0
 25 28  1  0
 24 29  2  0
 26 30  1  0
 30 31  2  0
 27 32  2  0
 32 34  1  0
 33 34  2  0
 34 35  1  0
 35 36  2  0
  1 37  2  0
 33 37  1  0
 36 37  1  0
 35 38  1  0
 36 39  1  0
 39 40  1  0
 40 41  1  0
 41 42  2  0
 41 43  1  0
  1 44  1  0
  2 45  1  0
  7 46  1  0
  7 47  1  0
  7 48  1  0
  8 49  1  0
  8 50  1  0
  9 51  1  0
  9 52  1  0
 12 53  1  0
 13 54  1  0
 14 55  1  0
 19 56  1  0
 19 57  1  0
 19 58  1  0
 21 59  1  0
 22 60  1  0
 22 61  1  0
 23 62  1  0
 28 63  1  0
 28 64  1  0
 28 65  1  0
 30 66  1  0
 31 67  1  0
 31 68  1  0
 32 69  1  0
 38 70  1  0
 38 71  1  0
 38 72  1  0
 39 73  1  0
 39 74  1  0
 40 75  1  0
 40 76  1  0
 43 77  1  0
M  END
