8G6P_API_A_809
     RDKit          3D

 27 26  0  0  0  0  0  0  0  0999 V2000
  -25.5750   13.4498  -10.9019 C   0  0  0  0  0  0  0  0  0  0  0  0
  -25.9447   12.1572  -11.5748 C   0  0  2  0  0  0  0  0  0  0  0  0
  -26.0693   11.0040  -10.5546 C   0  0  2  0  0  0  0  0  0  0  0  0
  -26.0995   11.5124   -9.1046 C   0  0  1  0  0  0  0  0  0  0  0  0
  -26.1380   10.3365   -8.1123 C   0  0  2  0  0  0  0  0  0  0  0  0
  -26.2832   10.7549   -6.6299 C   0  0  2  0  0  0  0  0  0  0  0  0
  -27.3506   11.8005   -6.4442 C   0  0  0  0  0  0  0  0  0  0  0  0
  -24.4134   13.9238  -11.0267 O   0  0  0  0  0  0  0  0  0  0  0  0
  -26.5151   14.1172  -10.1228 O   0  0  0  0  0  0  0  0  0  0  0  0
  -27.0583   13.0271   -6.4391 O   0  0  0  0  0  0  0  0  0  0  0  0
  -28.6801   11.4080   -6.3234 O   0  0  0  0  0  0  0  0  0  0  0  0
  -24.9513   11.8415  -12.6035 N   0  0  0  0  0  0  0  0  0  0  0  0
  -25.0115   11.1854   -6.0389 N   0  0  0  0  0  0  0  0  0  0  0  0
  -26.9283   12.2943  -12.0779 H   0  0  0  0  0  0  0  0  0  0  0  0
  -25.2237   10.2922  -10.6838 H   0  0  0  0  0  0  0  0  0  0  0  0
  -27.0126   10.4502  -10.7565 H   0  0  0  0  0  0  0  0  0  0  0  0
  -25.1922   12.1240   -8.9192 H   0  0  0  0  0  0  0  0  0  0  0  0
  -26.9971   12.1522   -8.9663 H   0  0  0  0  0  0  0  0  0  0  0  0
  -25.2082    9.7370   -8.2257 H   0  0  0  0  0  0  0  0  0  0  0  0
  -26.9899    9.6694   -8.3717 H   0  0  0  0  0  0  0  0  0  0  0  0
  -26.6179    9.8531   -6.0711 H   0  0  0  0  0  0  0  0  0  0  0  0
  -27.0058   13.6385   -9.3770 H   0  0  0  0  0  0  0  0  0  0  0  0
  -29.0755   11.1840   -5.4181 H   0  0  0  0  0  0  0  0  0  0  0  0
  -24.0187   12.1949  -12.2878 H   0  0  0  0  0  0  0  0  0  0  0  0
  -25.1910   12.3473  -13.4880 H   0  0  0  0  0  0  0  0  0  0  0  0
  -24.4071   10.3585   -5.8317 H   0  0  0  0  0  0  0  0  0  0  0  0
  -25.2058   11.6700   -5.1326 H   0  0  0  0  0  0  0  0  0  0  0  0
  1  2  1  0
  2  3  1  0
  3  4  1  0
  4  5  1  0
  5  6  1  0
  6  7  1  0
  1  8  2  0
  1  9  1  0
  7 10  2  0
  7 11  1  0
  2 12  1  0
  6 13  1  0
  2 14  1  6
  3 15  1  1
  3 16  1  0
  4 17  1  1
  4 18  1  0
  5 19  1  1
  5 20  1  0
  6 21  1  1
  9 22  1  0
 11 23  1  0
 12 24  1  0
 12 25  1  0
 13 26  1  0
 13 27  1  0
M  END
