
     RDKit          3D

  7  7  0  0  0  0  0  0  0  0999 V2000
   10.7188   50.1513   50.9899 C   0  0  0  0  0  0  0  0  0  0  0  0
   12.0229   49.4447   50.5758 C   0  0  0  0  0  0  0  0  0  0  0  0
   11.2158   48.7633   49.4363 C   0  0  0  0  0  0  0  0  0  0  0  0
   10.2452   49.9722   49.5356 C   0  0  0  0  0  0  0  0  0  0  0  0
   11.9092   48.5213   48.0768 C   0  0  0  0  0  0  0  0  0  0  0  0
   13.1183   47.9191   48.1828 O   0  0  0  0  0  0  0  0  0  0  0  0
   11.4969   48.8038   46.9585 O   0  0  0  0  0  0  0  0  0  0  0  0
  1  2  1  0
  2  3  1  0
  3  4  1  0
  1  4  1  0
  3  5  1  0
  5  6  1  0
  5  7  2  0
M  END
