7DQL_4CL_A_302
     RDKit          3D

 14 14  0  0  0  0  0  0  0  0999 V2000
   -2.0230    1.5475    2.1995 Cl  0  0  0  0  0  0  0  0  0  0  0  0
   -0.7616    0.8983    1.1676 C   0  0  0  0  0  0  0  0  0  0  0  0
   -1.0963    0.2729   -0.0374 C   0  0  0  0  0  0  0  0  0  0  0  0
   -0.0919   -0.2447   -0.8602 C   0  0  0  0  0  0  0  0  0  0  0  0
    1.2549   -0.1395   -0.4820 C   0  0  0  0  0  0  0  0  0  0  0  0
    2.2558   -0.6559   -1.3032 O   0  0  0  0  0  0  0  0  0  0  0  0
    1.5912    0.4897    0.7302 C   0  0  0  0  0  0  0  0  0  0  0  0
    0.5800    1.0059    1.5496 C   0  0  0  0  0  0  0  0  0  0  0  0
    2.9200    0.6108    1.1354 O   0  0  0  0  0  0  0  0  0  0  0  0
   -2.1331    0.1872   -0.3372 H   0  0  0  0  0  0  0  0  0  0  0  0
   -0.3607   -0.7272   -1.7912 H   0  0  0  0  0  0  0  0  0  0  0  0
    2.0384   -1.1134   -2.1809 H   0  0  0  0  0  0  0  0  0  0  0  0
    0.8389    1.4903    2.4828 H   0  0  0  0  0  0  0  0  0  0  0  0
    3.6869    0.2539    0.5781 H   0  0  0  0  0  0  0  0  0  0  0  0
  1  2  1  0
  2  3  2  0
  3  4  1  0
  4  5  2  0
  5  6  1  0
  5  7  1  0
  2  8  1  0
  7  8  2  0
  7  9  1  0
  3 10  1  0
  4 11  1  0
  6 12  1  0
  8 13  1  0
  9 14  1  0
M  END
