7RSV_7IQ_B_901
     RDKit          3D

 40 43  0  0  0  0  0  0  0  0999 V2000
    0.9622  -40.7910   -4.3972 C   0  0  0  0  0  0  0  0  0  0  0  0
    1.3472  -38.0432    2.3622 C   0  0  2  0  0  0  0  0  0  0  0  0
    1.2993  -42.4192   -2.6892 C   0  0  0  0  0  0  0  0  0  0  0  0
    0.7885  -37.2093    0.0664 C   0  0  0  0  0  0  0  0  0  0  0  0
    0.9094  -41.4112   -1.6071 C   0  0  0  0  0  0  0  0  0  0  0  0
    1.0591  -39.0933   -1.0839 C   0  0  0  0  0  0  0  0  0  0  0  0
    0.7240  -37.7341   -1.1945 C   0  0  0  0  0  0  0  0  0  0  0  0
   -0.9978  -39.7049   -3.2845 C   0  0  0  0  0  0  0  0  0  0  0  0
    0.7500  -39.2377    3.1442 C   0  0  0  0  0  0  0  0  0  0  0  0
   -0.5712  -38.7250    3.7595 C   0  0  0  0  0  0  0  0  0  0  0  0
   -0.7584  -37.2797    3.2774 C   0  0  0  0  0  0  0  0  0  0  0  0
    0.6534  -36.7741    2.8897 C   0  0  2  0  0  0  0  0  0  0  0  0
    0.5320  -39.7223   -3.3927 C   0  0  1  0  0  0  0  0  0  0  0  0
    0.5462  -35.8489    0.5706 C   0  0  0  0  0  0  0  0  0  0  0  0
    1.1553  -38.2213    0.9283 N   0  0  0  0  0  4  0  0  0  0  0  0
    1.3131  -39.3688    0.1732 N   0  0  0  0  0  0  0  0  0  0  0  0
    0.5049  -35.7025    1.9124 N   0  0  0  0  0  0  0  0  0  0  0  0
    1.1491  -40.0489   -2.0986 N   0  0  0  0  0  0  0  0  0  0  0  0
    0.3991  -34.8989   -0.1775 O   0  0  0  0  0  0  0  0  0  0  0  0
    0.5972  -42.0749   -3.8875 O   0  0  0  0  0  0  0  0  0  0  0  0
    2.0221  -40.7475   -4.5369 H   0  0  0  0  0  0  0  0  0  0  0  0
    0.4794  -40.6221   -5.3371 H   0  0  0  0  0  0  0  0  0  0  0  0
    2.4041  -37.9670    2.5104 H   0  0  0  0  0  0  0  0  0  0  0  0
    1.0276  -43.4069   -2.3802 H   0  0  0  0  0  0  0  0  0  0  0  0
    2.3557  -42.3944   -2.8571 H   0  0  0  0  0  0  0  0  0  0  0  0
    1.4985  -41.5831   -0.7306 H   0  0  0  0  0  0  0  0  0  0  0  0
   -0.1272  -41.5272   -1.3683 H   0  0  0  0  0  0  0  0  0  0  0  0
    0.4769  -37.2292   -2.0599 H   0  0  0  0  0  0  0  0  0  0  0  0
   -1.4202  -39.4652   -4.2379 H   0  0  0  0  0  0  0  0  0  0  0  0
   -1.2962  -38.9692   -2.5671 H   0  0  0  0  0  0  0  0  0  0  0  0
   -1.3443  -40.6681   -2.9729 H   0  0  0  0  0  0  0  0  0  0  0  0
    1.4225  -39.5510    3.9152 H   0  0  0  0  0  0  0  0  0  0  0  0
    0.5845  -40.0807    2.5063 H   0  0  0  0  0  0  0  0  0  0  0  0
   -0.5140  -38.7517    4.8277 H   0  0  0  0  0  0  0  0  0  0  0  0
   -1.3956  -39.3377    3.4599 H   0  0  0  0  0  0  0  0  0  0  0  0
   -1.1675  -36.6763    4.0607 H   0  0  0  0  0  0  0  0  0  0  0  0
   -1.4350  -37.2265    2.4503 H   0  0  0  0  0  0  0  0  0  0  0  0
    1.2352  -36.3444    3.6783 H   0  0  0  0  0  0  0  0  0  0  0  0
    0.8489  -38.7496   -3.7063 H   0  0  0  0  0  0  0  0  0  0  0  0
    0.3620  -34.7929    2.2610 H   0  0  0  0  0  0  0  0  0  0  0  0
  3  5  1  0
  4  7  4  0
  6  7  4  0
  2  9  1  0
  9 10  1  0
 10 11  1  0
 12 11  1  0
  2 12  1  0
 13  8  1  0
  1 13  1  0
  4 14  1  0
  2 15  1  0
  4 15  4  0
 15 16  4  0
  6 16  4  0
 12 17  1  0
 14 17  1  0
  6 18  1  0
  5 18  1  0
 13 18  1  0
 14 19  2  0
  3 20  1  0
  1 20  1  0
  1 21  1  0
  1 22  1  0
  2 23  1  6
  3 24  1  0
  3 25  1  0
  5 26  1  0
  5 27  1  0
  7 28  1  0
  8 29  1  0
  8 30  1  0
  8 31  1  0
  9 32  1  0
  9 33  1  0
 10 34  1  0
 10 35  1  0
 11 36  1  0
 11 37  1  0
 12 38  1  1
 13 39  1  6
 17 40  1  0
M  CHG  1  15   1
M  END
