7AVI_S2Q_A_1101
     RDKit          3D

 27 29  0  0  0  0  0  0  0  0999 V2000
  -17.4257   12.9468  -43.4281 C   0  0  0  0  0  0  0  0  0  0  0  0
  -17.4129   13.9960  -44.3108 C   0  0  0  0  0  0  0  0  0  0  0  0
  -16.7251   15.1348  -43.9560 C   0  0  0  0  0  0  0  0  0  0  0  0
  -16.0686   15.2254  -42.7557 C   0  0  0  0  0  0  0  0  0  0  0  0
  -15.3585   16.4572  -42.4381 C   0  0  0  0  0  0  0  0  0  0  0  0
  -14.5065   18.7481  -43.0533 C   0  0  1  0  0  0  0  0  0  0  0  0
  -14.9332   19.8272  -44.0270 C   0  0  0  0  0  0  0  0  0  0  0  0
  -12.1555   19.3722  -42.7823 C   0  0  0  0  0  0  0  0  0  0  0  0
  -10.3380   18.1008  -43.6711 C   0  0  0  0  0  0  0  0  0  0  0  0
  -18.4185   14.4232  -46.6431 C   0  0  2  0  0  0  0  0  0  0  0  0
  -18.5942   13.5620  -47.8675 C   0  0  0  0  0  0  0  0  0  0  0  0
  -18.1358   11.9970  -43.9890 O   0  0  0  0  0  0  0  0  0  0  0  0
  -18.5653   12.3671  -45.1457 N   0  0  0  0  0  0  0  0  0  0  0  0
  -18.1436   13.6375  -45.4236 C   0  0  0  0  0  0  0  0  0  0  0  0
  -16.7816   13.0337  -42.2488 N   0  0  0  0  0  0  0  0  0  0  0  0
  -16.1091   14.1453  -41.9004 C   0  0  0  0  0  0  0  0  0  0  0  0
  -15.3326   17.5898  -43.2971 N   0  0  0  0  0  0  0  0  0  0  0  0
  -14.7347   16.5317  -41.3524 O   0  0  0  0  0  0  0  0  0  0  0  0
  -13.0686   18.4798  -43.2946 C   0  0  0  0  0  0  0  0  0  0  0  0
  -10.7804   19.1916  -42.9655 C   0  0  0  0  0  0  0  0  0  0  0  0
  -12.6095   17.3872  -44.0022 C   0  0  0  0  0  0  0  0  0  0  0  0
  -11.2556   17.2098  -44.1823 C   0  0  0  0  0  0  0  0  0  0  0  0
  -19.5502   15.4077  -46.4983 C   0  0  0  0  0  0  0  0  0  0  0  0
  -10.6434   15.8376  -45.0728 S   0  0  2  0  0  0  0  0  0  0  0  0
  -11.4911   14.6275  -44.9378 O   0  0  0  0  0  0  0  0  0  0  0  0
   -9.2584   15.4709  -44.5996 O   0  0  0  0  0  0  0  0  0  0  0  0
  -10.4831   16.2726  -46.7425 N   0  0  0  0  0  0  0  0  0  0  0  0
  1  2  1  0
  2  3  2  0
  3  4  1  0
  4  5  1  0
  6  7  1  6
 10 11  1  6
  1 12  1  0
 12 13  1  0
 10 14  1  0
  2 14  1  0
 13 14  2  0
  1 15  2  0
  4 16  2  0
 15 16  1  0
  6 17  1  0
  5 17  1  0
  5 18  2  0
  6 19  1  0
  8 19  2  0
  8 20  1  0
  9 20  2  0
 19 21  1  0
 21 22  2  0
  9 22  1  0
 10 23  1  0
 22 24  1  0
 24 25  2  0
 24 26  2  0
 24 27  1  6
M  END
$$$$
