6ZC3_JOR_B_401
     RDKit          3D

 15 15  0  0  0  0  0  0  0  0999 V2000
  -17.6500   35.2340    3.5070 C   0  0  0  0  0  0  0  0  0  0  0  0
  -18.8230   36.5410    3.2130 S   0  0  0  0  0  0  0  0  0  0  0  0
  -19.5860   36.2520    1.9560 O   0  0  0  0  0  0  0  0  0  0  0  0
  -18.0910   37.8420    3.0710 O   0  0  0  0  0  0  0  0  0  0  0  0
  -19.8600   36.6330    4.4700 N   0  0  0  0  0  0  0  0  0  0  0  0
  -20.6700   35.6140    4.7490 C   0  0  0  0  0  0  0  0  0  0  0  0
  -21.7640   35.3510    3.9310 C   0  0  0  0  0  0  0  0  0  0  0  0
  -22.6150   34.2900    4.2220 C   0  0  0  0  0  0  0  0  0  0  0  0
  -22.3810   33.4970    5.3400 C   0  0  0  0  0  0  0  0  0  0  0  0
  -23.2010   32.4690    5.6310 F   0  0  0  0  0  0  0  0  0  0  0  0
  -21.2930   33.7630    6.1600 C   0  0  0  0  0  0  0  0  0  0  0  0
  -20.4410   34.8220    5.8700 C   0  0  0  0  0  0  0  0  0  0  0  0
  -19.2540   35.0960    6.7910 C   0  0  0  0  0  0  0  0  0  0  0  0
  -18.8090   36.2630    6.8440 O   0  0  0  0  0  0  0  0  0  0  0  0
  -18.8200   34.1400    7.4700 O   0  0  0  0  0  0  0  0  0  0  0  0
  1  2  1  0
  2  3  2  0
  2  4  2  0
  2  5  1  0
  5  6  1  0
  6  7  2  0
  7  8  1  0
  8  9  2  0
  9 10  1  0
  9 11  1  0
 11 12  2  0
  6 12  1  0
 12 13  1  0
 13 14  2  0
 13 15  1  0
M  END
$$$$
6ZC3_JOR_A_402
     RDKit          3D

 15 15  0  0  0  0  0  0  0  0999 V2000
   -1.9360   21.2880    6.1650 C   0  0  0  0  0  0  0  0  0  0  0  0
   -3.5170   22.0580    6.4380 S   0  0  0  0  0  0  0  0  0  0  0  0
   -3.5130   22.7400    7.7720 O   0  0  0  0  0  0  0  0  0  0  0  0
   -4.5900   21.0120    6.4080 O   0  0  0  0  0  0  0  0  0  0  0  0
   -3.8010   23.1500    5.2600 N   0  0  0  0  0  0  0  0  0  0  0  0
   -3.0000   24.2030    5.1060 C   0  0  0  0  0  0  0  0  0  0  0  0
   -2.9960   25.2160    6.0600 C   0  0  0  0  0  0  0  0  0  0  0  0
   -2.1730   26.3250    5.8990 C   0  0  0  0  0  0  0  0  0  0  0  0
   -1.3560   26.4260    4.7790 C   0  0  0  0  0  0  0  0  0  0  0  0
   -0.5540   27.4980    4.6180 F   0  0  0  0  0  0  0  0  0  0  0  0
   -1.3660   25.4190    3.8220 C   0  0  0  0  0  0  0  0  0  0  0  0
   -2.1890   24.3100    3.9790 C   0  0  0  0  0  0  0  0  0  0  0  0
   -2.1780   23.2100    2.9130 C   0  0  0  0  0  0  0  0  0  0  0  0
   -1.1470   23.0910    2.2170 O   0  0  0  0  0  0  0  0  0  0  0  0
   -3.2050   22.5110    2.7740 O   0  0  0  0  0  0  0  0  0  0  0  0
  1  2  1  0
  2  3  2  0
  2  4  2  0
  2  5  1  0
  5  6  1  0
  6  7  2  0
  7  8  1  0
  8  9  2  0
  9 10  1  0
  9 11  1  0
 11 12  2  0
  6 12  1  0
 12 13  1  0
 13 14  2  0
 13 15  1  0
M  END
$$$$
