7WY1_D0L_B_502
     RDKit          3D

 26 27  0  0  0  0  0  0  0  0999 V2000
    5.3946  -16.2603  -37.2032 C   0  0  0  0  0  0  0  0  0  0  0  0
    5.1085  -16.4704  -35.8745 C   0  0  0  0  0  0  0  0  0  0  0  0
    9.4102  -12.4954  -33.1765 C   0  0  0  0  0  0  0  0  0  0  0  0
   10.5584  -13.2547  -31.1573 C   0  0  0  0  0  0  0  0  0  0  0  0
    6.1710  -16.2154  -34.8425 C   0  0  0  0  0  0  0  0  0  0  0  0
   10.7128  -15.6039  -31.7400 C   0  0  0  0  0  0  0  0  0  0  0  0
    8.7496  -15.5523  -33.3057 C   0  0  0  0  0  0  0  0  0  0  0  0
    3.8732  -16.9861  -35.5141 C   0  0  0  0  0  0  0  0  0  0  0  0
   10.8709  -14.6255  -30.5777 C   0  0  0  0  0  0  0  0  0  0  0  0
    9.9281  -14.7899  -32.7642 C   0  0  1  0  0  0  0  0  0  0  0  0
    4.4315  -16.5227  -38.1319 C   0  0  0  0  0  0  0  0  0  0  0  0
    7.0969  -15.0149  -35.0657 C   0  0  1  0  0  0  0  0  0  0  0  0
    3.1767  -17.0204  -37.8040 C   0  0  0  0  0  0  0  0  0  0  0  0
    6.3041  -13.7874  -35.4169 C   0  0  0  0  0  0  0  0  0  0  0  0
    2.9020  -17.2589  -36.4804 C   0  0  0  0  0  0  0  0  0  0  0  0
    6.6128  -12.7052  -34.8477 O   0  0  0  0  0  0  0  0  0  0  0  0
    8.7800  -16.7824  -33.2546 O   0  0  0  0  0  0  0  0  0  0  0  0
    5.3596  -13.8652  -36.2578 O   0  0  0  0  0  0  0  0  0  0  0  0
    9.5200  -13.5152  -32.0982 N   0  0  0  0  0  0  0  0  0  0  0  0
    8.9930  -11.1081  -32.7394 C   0  0  0  0  0  0  0  0  0  0  0  0
    9.8942  -10.0797  -33.4186 C   0  0  0  0  0  0  0  0  0  0  0  0
    9.7393   -8.6716  -32.8369 C   0  0  0  0  0  0  0  0  0  0  0  0
   10.8656   -7.8142  -33.4155 C   0  0  0  0  0  0  0  0  0  0  0  0
   10.4869   -6.3758  -33.7349 C   0  0  0  0  0  0  0  0  0  0  0  0
    9.5409   -5.7565  -32.7064 C   0  0  0  0  0  0  0  0  0  0  0  0
    7.7449  -14.8393  -33.7972 N   0  0  0  0  0  0  0  0  0  0  0  0
  1  2  2  0
  2  5  1  0
  2  8  1  0
  4  9  1  0
  6  9  1  0
  6 10  1  0
 10  7  1  1
  1 11  1  0
 12  5  1  1
 11 13  2  0
 12 14  1  0
 13 15  1  0
  8 15  2  0
 14 16  2  0
  7 17  2  0
 14 18  1  0
  4 19  1  0
  3 19  1  0
 10 19  1  0
  3 20  1  0
 20 21  1  0
 21 22  1  0
 22 23  1  0
 23 24  1  0
 24 25  1  0
  7 26  1  0
 12 26  1  0
M  END
