7Z2O_IAJ_A_701
     RDKit          3D

 21 23  0  0  0  0  0  0  0  0999 V2000
  -11.6872    9.6751   23.0664 C   0  0  0  0  0  0  0  0  0  0  0  0
  -10.9805    8.6080   23.6427 C   0  0  0  0  0  0  0  0  0  0  0  0
  -11.6910    7.4716   24.0145 C   0  0  0  0  0  0  0  0  0  0  0  0
  -12.6468    5.3937   24.7512 C   0  0  0  0  0  0  0  0  0  0  0  0
  -14.7079    5.5218   24.3555 C   0  0  0  0  0  0  0  0  0  0  0  0
  -13.0733    7.3841   23.8237 C   0  0  0  0  0  0  0  0  0  0  0  0
  -13.1520    4.2240   25.1715 N   0  0  0  0  0  0  0  0  0  0  0  0
  -14.4609    4.3094   24.9184 N   0  0  0  0  0  0  0  0  0  0  0  0
  -13.0814    9.5936   22.8710 C   0  0  0  0  0  0  0  0  0  0  0  0
  -13.5592    6.2005   24.2531 N   0  0  0  0  0  0  0  0  0  0  0  0
  -16.0152    9.3131   22.5069 C   0  0  2  0  0  0  0  0  0  0  0  0
  -15.1845    8.3079   23.0771 O   0  0  0  0  0  0  0  0  0  0  0  0
  -13.7987    8.4344   23.2516 C   0  0  0  0  0  0  0  0  0  0  0  0
  -11.0865    6.0359   24.7326 S   0  0  0  0  0  0  0  0  0  0  0  0
  -11.1557   10.5698   22.7690 H   0  0  0  0  0  0  0  0  0  0  0  0
   -9.9106    8.6688   23.7933 H   0  0  0  0  0  0  0  0  0  0  0  0
  -15.6806    5.8759   24.0423 H   0  0  0  0  0  0  0  0  0  0  0  0
  -13.5892   10.4373   22.4239 H   0  0  0  0  0  0  0  0  0  0  0  0
  -17.0629    8.9491   22.4873 H   0  0  0  0  0  0  0  0  0  0  0  0
  -15.6938    9.5288   21.4661 H   0  0  0  0  0  0  0  0  0  0  0  0
  -15.9711   10.2378   23.1203 H   0  0  0  0  0  0  0  0  0  0  0  0
  1  2  2  0
  2  3  1  0
  3  6  2  0
  4  7  2  0
  5  8  2  0
  7  8  1  0
  1  9  1  0
  5 10  1  0
  6 10  1  0
  4 10  1  0
 11 12  1  0
 12 13  1  0
  6 13  1  0
  9 13  2  0
  4 14  1  0
  3 14  1  0
  1 15  1  0
  2 16  1  0
  5 17  1  0
  9 18  1  0
 11 19  1  6
 11 20  1  0
 11 21  1  0
M  END
