1HWW_SWA_A_1103
     RDKit          3D

 12 13  0  0  0  0  0  0  0  0999 V2000
   33.4415   64.1893    1.7701 C   0  0  1  0  0  0  0  0  0  0  0  0
   34.7939   63.9290    1.3570 O   0  0  0  0  0  0  0  0  0  0  0  0
   33.2176   63.7045    3.2424 C   0  0  1  0  0  0  0  0  0  0  0  0
   31.8191   63.9940    3.6129 N   0  0  0  0  0  0  0  0  0  0  0  0
   31.5016   65.4506    3.6441 C   0  0  0  0  0  0  0  0  0  0  0  0
   31.6827   66.0226    2.2118 C   0  0  0  0  0  0  0  0  0  0  0  0
   33.1194   65.7200    1.6937 C   0  0  0  0  0  0  0  0  0  0  0  0
   31.4664   63.1832    4.7713 C   0  0  0  0  0  0  0  0  0  0  0  0
   32.3950   61.9430    4.7137 C   0  0  1  0  0  0  0  0  0  0  0  0
   31.6303   60.7585    4.5094 O   0  0  0  0  0  0  0  0  0  0  0  0
   33.3895   62.1861    3.5189 C   0  0  1  0  0  0  0  0  0  0  0  0
   33.0159   61.4033    2.3650 O   0  0  0  0  0  0  0  0  0  0  0  0
  1  2  1  1
  1  3  1  0
  3  4  1  6
  4  5  1  0
  5  6  1  0
  1  7  1  0
  6  7  1  0
  4  8  1  0
  8  9  1  0
  9 10  1  6
  3 11  1  0
  9 11  1  0
 11 12  1  6
M  END
