
     RDKit          3D

 37 41  0  0  0  0  0  0  0  0999 V2000
  -19.5961   -9.4931   17.5683 C   0  0  0  0  0  0  0  0  0  0  0  0
  -19.0109   -9.9737   16.2637 C   0  0  2  0  0  0  0  0  0  0  0  0
  -21.4343   -9.1633   13.6335 C   0  0  1  0  0  0  0  0  0  0  0  0
  -23.0954  -10.4840   15.1381 C   0  0  0  0  0  0  0  0  0  0  0  0
  -23.7286  -12.7501   14.1557 C   0  0  0  0  0  0  0  0  0  0  0  0
  -24.4656  -13.5048   13.2422 C   0  0  0  0  0  0  0  0  0  0  0  0
  -25.3207  -12.8574   12.3617 C   0  0  0  0  0  0  0  0  0  0  0  0
  -25.4097  -11.4780   12.4323 C   0  0  0  0  0  0  0  0  0  0  0  0
  -23.2883   -8.0672   14.6350 C   0  0  0  0  0  0  0  0  0  0  0  0
  -24.3480   -7.8561   15.1939 O   0  0  0  0  0  0  0  0  0  0  0  0
  -22.8708   -5.7246   13.6853 C   0  0  0  0  0  0  0  0  0  0  0  0
  -20.8924   -5.5755   12.3014 C   0  0  0  0  0  0  0  0  0  0  0  0
  -20.6293   -6.9350   12.4942 C   0  0  0  0  0  0  0  0  0  0  0  0
  -21.4792   -7.6926   13.2692 C   0  0  0  0  0  0  0  0  0  0  0  0
  -22.2572   -3.4542   12.6486 C   0  0  0  0  0  0  0  0  0  0  0  0
  -21.0019   -2.6515   12.2840 C   0  0  0  0  0  0  0  0  0  0  0  0
  -22.9386   -2.8199   13.8638 C   0  0  0  0  0  0  0  0  0  0  0  0
  -21.0227  -11.9539   10.9967 C   0  0  0  0  0  0  0  0  0  0  0  0
  -22.3984   -9.5453   11.2705 C   0  0  0  0  0  0  0  0  0  0  0  0
  -17.6940  -10.7309   16.3024 C   0  0  0  0  0  0  0  0  0  0  0  0
  -17.7236   -9.3197   15.7914 C   0  0  0  0  0  0  0  0  0  0  0  0
  -19.2455  -10.3710   18.6276 O   0  0  0  0  0  0  0  0  0  0  0  0
  -20.0273  -10.3820   15.2151 C   0  0  0  0  0  0  0  0  0  0  0  0
  -20.1912   -9.2885   14.3231 O   0  0  0  0  0  0  0  0  0  0  0  0
  -22.5594   -9.2433   14.5858 N   0  0  0  0  0  0  0  0  0  0  0  0
  -23.8550  -11.3603   14.1580 C   0  0  0  0  0  0  0  0  0  0  0  0
  -26.2441  -13.7459   11.2219 Cl  0  0  0  0  0  0  0  0  0  0  0  0
  -24.7028  -10.7190   13.3066 N   0  0  0  0  0  0  0  0  0  0  0  0
  -22.5710   -7.0698   13.8519 C   0  0  0  0  0  0  0  0  0  0  0  0
  -22.0118   -4.9409   12.8990 C   0  0  0  0  0  0  0  0  0  0  0  0
  -19.5459   -7.4772   11.9265 F   0  0  0  0  0  0  0  0  0  0  0  0
  -23.1505   -3.3154   11.5362 O   0  0  0  0  0  0  0  0  0  0  0  0
  -21.6126   -9.9988   12.3502 C   0  0  0  0  0  0  0  0  0  0  0  0
  -20.9071  -11.2057   12.1723 C   0  0  0  0  0  0  0  0  0  0  0  0
  -21.8321  -11.4967    9.9637 C   0  0  0  0  0  0  0  0  0  0  0  0
  -21.9721  -12.4103    8.5141 Cl  0  0  0  0  0  0  0  0  0  0  0  0
  -22.5165  -10.2925   10.0932 C   0  0  0  0  0  0  0  0  0  0  0  0
  2  1  1  1
  5  6  4  0
  6  7  4  0
  7  8  4  0
  9 10  2  0
 12 13  4  0
 13 14  4  0
  3 14  1  0
 15 16  1  0
 15 17  1  0
  2 20  1  0
  2 21  1  0
 20 21  1  0
  1 22  1  0
  2 23  1  0
  3 24  1  1
 23 24  1  0
  3 25  1  0
  9 25  1  0
  4 25  1  0
  5 26  4  0
  4 26  1  0
  7 27  1  0
  8 28  4  0
 26 28  4  0
 14 29  4  0
 11 29  4  0
  9 29  1  0
 12 30  4  0
 15 30  1  0
 11 30  4  0
 13 31  1  0
 15 32  1  0
 19 33  4  0
  3 33  1  0
 18 34  4  0
 33 34  4  0
 18 35  4  0
 35 36  1  0
 35 37  4  0
 19 37  4  0
M  END
