7FT9_4MB_C_301
     RDKit          3D

 14 14  0  0  0  0  0  0  0  0999 V2000
  -23.1635   -0.3191  -32.7930 C   0  0  0  0  0  0  0  0  0  0  0  0
  -24.0412   -1.2380  -34.8580 C   0  0  0  0  0  0  0  0  0  0  0  0
  -23.2794    2.1717  -32.4667 N   0  0  0  0  0  0  0  0  0  0  0  0
  -23.4932    0.9716  -33.2295 C   0  0  0  0  0  0  0  0  0  0  0  0
  -23.4333   -1.4138  -33.6002 C   0  0  0  0  0  0  0  0  0  0  0  0
  -24.3092   -2.3580  -35.7938 C   0  0  0  0  0  0  0  0  0  0  0  0
  -24.3741    0.0414  -35.2605 C   0  0  0  0  0  0  0  0  0  0  0  0
  -23.7972    1.1226  -30.0210 C   0  0  0  0  0  0  0  0  0  0  0  0
  -24.0996    1.1344  -34.4627 C   0  0  0  0  0  0  0  0  0  0  0  0
  -24.8095   -2.1434  -36.9072 O   0  0  0  0  0  0  0  0  0  0  0  0
  -23.9775   -3.5481  -35.3702 O   0  0  0  0  0  0  0  0  0  0  0  0
  -22.7899    2.2409  -30.9195 S   0  0  1  0  0  0  0  0  0  0  0  0
  -21.4504    1.7391  -30.9333 O   0  0  0  0  0  0  0  0  0  0  0  0
  -23.0302    3.5590  -30.4236 O   0  0  0  0  0  0  0  0  0  0  0  0
  1  4  2  0
  3  4  1  0
  1  5  1  0
  2  5  2  0
  2  6  1  0
  2  7  1  0
  4  9  1  0
  7  9  2  0
  6 10  2  0
  6 11  1  0
  3 12  1  0
 12  8  1  1
 12 13  2  0
 12 14  2  0
M  END
