7P4J_5JK_A_904
     RDKit          3D

 75 78  0  0  0  0  0  0  0  0999 V2000
   -2.4442    1.7773   -0.9437 C   0  0  0  0  0  0  0  0  0  0  0  0
   -1.2950    0.9237   -1.5707 C   0  0  2  0  0  0  0  0  0  0  0  0
   -1.8264   -0.4622   -2.0138 C   0  0  0  0  0  0  0  0  0  0  0  0
   -2.2801   -1.3105   -0.8025 C   0  0  0  0  0  0  0  0  0  0  0  0
   -1.1821   -1.4687    0.3036 C   0  0  2  0  0  0  0  0  0  0  0  0
   -1.6643   -2.2564    1.5862 C   0  0  1  0  0  0  0  0  0  0  0  0
   -2.9550   -1.6369    2.1831 C   0  0  0  0  0  0  0  0  0  0  0  0
   -1.9608   -3.7626    1.2472 C   0  0  0  0  0  0  0  0  0  0  0  0
   -0.7165   -4.6558    1.3883 C   0  0  0  0  0  0  0  0  0  0  0  0
   -0.1825   -4.6810    2.8455 C   0  0  2  0  0  0  0  0  0  0  0  0
   -0.7118   -5.7840    3.5349 O   0  0  0  0  0  0  0  0  0  0  0  0
   -0.5191   -3.3951    3.6309 C   0  0  0  0  0  0  0  0  0  0  0  0
   -0.5894   -2.2164    2.6856 C   0  0  0  0  0  0  0  0  0  0  0  0
    0.3493   -1.2518    2.7704 C   0  0  0  0  0  0  0  0  0  0  0  0
    0.6331   -0.2684    1.6651 C   0  0  1  0  0  0  0  0  0  0  0  0
    1.8142   -0.6418    0.9957 O   0  0  0  0  0  0  0  0  0  0  0  0
   -0.5572   -0.0886    0.6908 C   0  0  1  0  0  0  0  0  0  0  0  0
   -0.1337    0.6539   -0.5986 C   0  0  2  0  0  0  0  0  0  0  0  0
    0.5827    1.9870   -0.4636 C   0  0  0  0  0  0  0  0  0  0  0  0
    0.4318    2.6310   -1.8487 C   0  0  0  0  0  0  0  0  0  0  0  0
   -0.5436    1.7410   -2.6668 C   0  0  2  0  0  0  0  0  0  0  0  0
   -1.3925    2.5724   -3.6905 C   0  0  2  0  0  0  0  0  0  0  0  0
   -1.3699    4.0815   -3.3845 C   0  0  0  0  0  0  0  0  0  0  0  0
   -2.8614    2.0720   -3.8032 C   0  0  0  0  0  0  0  0  0  0  0  0
   -3.2354    0.9546   -2.8118 C   0  0  0  0  0  0  0  0  0  0  0  0
   -4.3469    1.4237   -1.8564 C   0  0  0  0  0  0  0  0  0  0  0  0
   -3.9087    2.5071   -0.8425 C   0  0  2  0  0  0  0  0  0  0  0  0
   -2.6604    3.2725   -1.3019 C   0  0  0  0  0  0  0  0  0  0  0  0
   -3.7161    1.9436    0.5725 C   0  0  0  0  0  0  0  0  0  0  0  0
   -2.8787    1.3254   -0.0340 H   0  0  0  0  0  0  0  0  0  0  0  0
   -3.2821    1.8856   -1.6608 H   0  0  0  0  0  0  0  0  0  0  0  0
   -2.0982    2.7951   -0.6715 H   0  0  0  0  0  0  0  0  0  0  0  0
   -1.0386   -1.0188   -2.5683 H   0  0  0  0  0  0  0  0  0  0  0  0
   -2.6904   -0.3554   -2.6972 H   0  0  0  0  0  0  0  0  0  0  0  0
   -3.2007   -0.8596   -0.3867 H   0  0  0  0  0  0  0  0  0  0  0  0
   -2.5697   -2.3015   -1.2030 H   0  0  0  0  0  0  0  0  0  0  0  0
   -0.3766   -2.0740   -0.1661 H   0  0  0  0  0  0  0  0  0  0  0  0
   -3.8287   -1.8134    1.5230 H   0  0  0  0  0  0  0  0  0  0  0  0
   -3.2014   -2.1054    3.1597 H   0  0  0  0  0  0  0  0  0  0  0  0
   -2.8531   -0.5493    2.3629 H   0  0  0  0  0  0  0  0  0  0  0  0
   -2.7356   -4.1721    1.9348 H   0  0  0  0  0  0  0  0  0  0  0  0
   -2.3751   -3.8913    0.2304 H   0  0  0  0  0  0  0  0  0  0  0  0
    0.0791   -4.2744    0.7116 H   0  0  0  0  0  0  0  0  0  0  0  0
   -0.9610   -5.6865    1.0508 H   0  0  0  0  0  0  0  0  0  0  0  0
    0.9290   -4.7708    2.8032 H   0  0  0  0  0  0  0  0  0  0  0  0
   -0.2186   -6.5856    3.2169 H   0  0  0  0  0  0  0  0  0  0  0  0
   -1.5061   -3.5051    4.1305 H   0  0  0  0  0  0  0  0  0  0  0  0
    0.2321   -3.2461    4.4381 H   0  0  0  0  0  0  0  0  0  0  0  0
    1.0821   -1.2931    3.5714 H   0  0  0  0  0  0  0  0  0  0  0  0
    0.8247    0.7141    2.1485 H   0  0  0  0  0  0  0  0  0  0  0  0
    1.6989   -1.5708    0.6658 H   0  0  0  0  0  0  0  0  0  0  0  0
   -1.3023    0.5288    1.2266 H   0  0  0  0  0  0  0  0  0  0  0  0
    0.5936   -0.0191   -1.1179 H   0  0  0  0  0  0  0  0  0  0  0  0
    0.0977    2.6136    0.3166 H   0  0  0  0  0  0  0  0  0  0  0  0
    1.6543    1.8459   -0.2039 H   0  0  0  0  0  0  0  0  0  0  0  0
    0.0317    3.6608   -1.7215 H   0  0  0  0  0  0  0  0  0  0  0  0
    1.4184    2.6923   -2.3580 H   0  0  0  0  0  0  0  0  0  0  0  0
    0.0712    1.0184   -3.2493 H   0  0  0  0  0  0  0  0  0  0  0  0
   -0.9582    2.4386   -4.7046 H   0  0  0  0  0  0  0  0  0  0  0  0
   -2.1853    4.6090   -3.9242 H   0  0  0  0  0  0  0  0  0  0  0  0
   -1.4878    4.2701   -2.2962 H   0  0  0  0  0  0  0  0  0  0  0  0
   -0.4239    4.5365   -3.7361 H   0  0  0  0  0  0  0  0  0  0  0  0
   -3.0575    1.7173   -4.8370 H   0  0  0  0  0  0  0  0  0  0  0  0
   -3.5435    2.9367   -3.6468 H   0  0  0  0  0  0  0  0  0  0  0  0
   -2.3405    0.6700   -2.2225 H   0  0  0  0  0  0  0  0  0  0  0  0
   -3.5913    0.0710   -3.3752 H   0  0  0  0  0  0  0  0  0  0  0  0
   -4.7346    0.5474   -1.2916 H   0  0  0  0  0  0  0  0  0  0  0  0
   -5.1941    1.8222   -2.4571 H   0  0  0  0  0  0  0  0  0  0  0  0
   -4.7404    3.2440   -0.7871 H   0  0  0  0  0  0  0  0  0  0  0  0
   -2.4898    4.1478   -0.6394 H   0  0  0  0  0  0  0  0  0  0  0  0
   -1.7577    2.6272   -1.2633 H   0  0  0  0  0  0  0  0  0  0  0  0
   -2.7965    3.6452   -2.3399 H   0  0  0  0  0  0  0  0  0  0  0  0
   -2.8098    1.3058    0.6326 H   0  0  0  0  0  0  0  0  0  0  0  0
   -4.6024    1.3462    0.8747 H   0  0  0  0  0  0  0  0  0  0  0  0
   -3.6004    2.7777    1.2968 H   0  0  0  0  0  0  0  0  0  0  0  0
  2  1  1  1
  2  3  1  0
  3  4  1  0
  5  4  1  0
  5  6  1  0
  6  7  1  1
  6  8  1  0
  8  9  1  0
  9 10  1  0
 10 11  1  0
 10 12  1  0
 12 13  1  0
  6 13  1  0
 13 14  2  0
 14 15  1  0
 15 16  1  0
 17 15  1  0
  5 17  1  0
 17 18  1  0
  2 18  1  0
 18 19  1  0
 19 20  1  0
 21 20  1  0
  2 21  1  0
 21 22  1  0
 22 23  1  0
 22 24  1  0
 24 25  1  0
 25 26  1  0
 26 27  1  0
 27 28  1  0
 27 29  1  0
  1 30  1  0
  1 31  1  0
  1 32  1  0
  3 33  1  0
  3 34  1  0
  4 35  1  0
  4 36  1  0
  5 37  1  6
  7 38  1  0
  7 39  1  0
  7 40  1  0
  8 41  1  0
  8 42  1  0
  9 43  1  0
  9 44  1  0
 10 45  1  6
 11 46  1  0
 12 47  1  0
 12 48  1  0
 14 49  1  0
 15 50  1  1
 16 51  1  0
 17 52  1  1
 18 53  1  6
 19 54  1  0
 19 55  1  0
 20 56  1  0
 20 57  1  0
 21 58  1  6
 22 59  1  6
 23 60  1  0
 23 61  1  0
 23 62  1  0
 24 63  1  0
 24 64  1  0
 25 65  1  0
 25 66  1  0
 26 67  1  0
 26 68  1  0
 27 69  1  1
 28 70  1  0
 28 71  1  0
 28 72  1  0
 29 73  1  0
 29 74  1  0
 29 75  1  0
M  END
