8D5D_5DK_B_505
     RDKit          3D

 27 27  0  0  0  0  0  0  0  0999 V2000
    2.0040   -7.7330   39.0240 C   0  0  0  0  0  0  0  0  0  0  0  0
    3.1990   -8.0800   38.4120 C   0  0  0  0  0  0  0  0  0  0  0  0
    3.2140   -8.2610   37.0110 C   0  0  0  0  0  0  0  0  0  0  0  0
    2.0550   -7.9770   36.2420 C   0  0  0  0  0  0  0  0  0  0  0  0
    0.8970   -7.5510   36.9010 C   0  0  0  0  0  0  0  0  0  0  0  0
    6.9980   -9.5690   35.0370 C   0  0  0  0  0  0  0  0  0  0  0  0
    4.2390   -8.2130   39.1320 O   0  0  0  0  0  0  0  0  0  0  0  0
    0.7200   -9.5920   32.3140 O   0  0  0  0  0  0  0  0  0  0  0  0
    3.0610   -8.6740   32.0210 O   0  0  0  0  0  0  0  0  0  0  0  0
    2.6820  -11.1200   32.5920 O   0  0  0  0  0  0  0  0  0  0  0  0
    2.3550   -9.3910   34.2960 O   0  0  0  0  0  0  0  0  0  0  0  0
    5.5500   -8.9210   36.9460 N   0  0  0  0  0  0  0  0  0  0  0  0
    2.1780   -9.6880   32.7160 P   0  0  0  0  0  0  0  0  0  0  0  0
    1.8910   -7.6580   40.5200 C   0  0  0  0  0  0  0  0  0  0  0  0
    4.4450   -8.7450   36.3230 C   0  0  0  0  0  0  0  0  0  0  0  0
    2.0510   -8.0650   34.7420 C   0  0  0  0  0  0  0  0  0  0  0  0
    0.9070   -7.4480   38.2300 N   0  0  0  0  0  0  0  0  0  0  0  0
    6.6840   -9.7430   36.5280 C   0  0  1  0  0  0  0  0  0  0  0  0
    6.5180  -11.2330   36.9270 C   0  0  0  0  0  0  0  0  0  0  0  0
    5.3710  -11.7490   36.8830 O   0  0  0  0  0  0  0  0  0  0  0  0
    8.4240  -10.0260   34.7970 C   0  0  0  0  0  0  0  0  0  0  0  0
    8.8840   -9.7690   33.3900 C   0  0  0  0  0  0  0  0  0  0  0  0
   10.3120   -9.9920   33.3260 N   0  0  0  0  0  0  0  0  0  0  0  0
   11.0020   -9.9610   32.1920 C   0  0  0  0  0  0  0  0  0  0  0  0
   12.2990  -10.1650   32.2100 N   0  0  0  0  0  0  0  0  0  0  0  0
   10.3780   -9.7830   31.0450 N   0  0  0  0  0  0  0  0  0  0  0  0
    7.5720  -11.8510   37.2610 O   0  0  0  0  0  0  0  0  0  0  0  0
  1  2  2  0
  2  3  1  0
  3  4  2  0
  4  5  1  0
  2  7  1  0
 10 13  2  0
  8 13  1  0
 11 13  1  0
  9 13  1  0
  1 14  1  0
 12 15  2  0
  3 15  1  0
 11 16  1  0
  4 16  1  0
  1 17  1  0
  5 17  2  0
 18  6  1  6
 12 18  1  0
 18 19  1  0
 19 20  1  0
  6 21  1  0
 21 22  1  0
 22 23  1  0
 23 24  1  0
 24 25  1  0
 24 26  2  0
 19 27  2  0
M  END
$$$$
8D5D_5DK_A_505
     RDKit          3D

 27 27  0  0  0  0  0  0  0  0999 V2000
   38.7210   -7.8970   23.9230 C   0  0  0  0  0  0  0  0  0  0  0  0
   37.5530   -8.2250   24.5720 C   0  0  0  0  0  0  0  0  0  0  0  0
   37.5180   -8.2260   25.9990 C   0  0  0  0  0  0  0  0  0  0  0  0
   38.6600   -7.7560   26.7130 C   0  0  0  0  0  0  0  0  0  0  0  0
   39.7980   -7.3880   25.9780 C   0  0  0  0  0  0  0  0  0  0  0  0
   33.8200   -9.3890   28.1050 C   0  0  0  0  0  0  0  0  0  0  0  0
   36.5020   -8.5050   23.8630 O   0  0  0  0  0  0  0  0  0  0  0  0
   40.1130   -8.7350   30.7230 O   0  0  0  0  0  0  0  0  0  0  0  0
   37.7540   -7.8920   31.0420 O   0  0  0  0  0  0  0  0  0  0  0  0
   38.1220  -10.3550   30.8360 O   0  0  0  0  0  0  0  0  0  0  0  0
   38.4640   -8.8890   28.8560 O   0  0  0  0  0  0  0  0  0  0  0  0
   35.2410   -9.0430   26.0910 N   0  0  0  0  0  0  0  0  0  0  0  0
   38.6270   -8.9670   30.4510 P   0  0  0  0  0  0  0  0  0  0  0  0
   38.8430   -7.9880   22.4400 C   0  0  0  0  0  0  0  0  0  0  0  0
   36.3120   -8.6650   26.7000 C   0  0  0  0  0  0  0  0  0  0  0  0
   38.7100   -7.6370   28.2070 C   0  0  0  0  0  0  0  0  0  0  0  0
   39.7980   -7.4520   24.6450 N   0  0  0  0  0  0  0  0  0  0  0  0
   34.1380   -9.8180   26.6660 C   0  0  1  0  0  0  0  0  0  0  0  0
   34.3800  -11.3430   26.5500 C   0  0  0  0  0  0  0  0  0  0  0  0
   33.3640  -12.0660   26.3440 O   0  0  0  0  0  0  0  0  0  0  0  0
   32.4280   -9.8550   28.4680 C   0  0  0  0  0  0  0  0  0  0  0  0
   31.9890   -9.4610   29.8640 C   0  0  0  0  0  0  0  0  0  0  0  0
   30.5950   -9.8340   30.0260 N   0  0  0  0  0  0  0  0  0  0  0  0
   29.8970   -9.7030   31.1490 C   0  0  0  0  0  0  0  0  0  0  0  0
   28.6290  -10.0680   31.1870 N   0  0  0  0  0  0  0  0  0  0  0  0
   30.4650   -9.2190   32.2380 N   0  0  0  0  0  0  0  0  0  0  0  0
   35.5640  -11.7730   26.6240 O   0  0  0  0  0  0  0  0  0  0  0  0
  1  2  2  0
  2  3  1  0
  3  4  2  0
  4  5  1  0
  2  7  1  0
 10 13  2  0
  8 13  1  0
 11 13  1  0
  9 13  1  0
  1 14  1  0
 12 15  2  0
  3 15  1  0
 11 16  1  0
  4 16  1  0
  1 17  1  0
  5 17  2  0
 18  6  1  1
 12 18  1  0
 18 19  1  0
 19 20  1  0
  6 21  1  0
 21 22  1  0
 22 23  1  0
 23 24  1  0
 24 25  1  0
 24 26  2  0
 19 27  2  0
M  END
$$$$
