1KZK_JE2_A_701
     RDKit          3D

 41 44  0  0  0  0  0  0  0  0999 V2000
   19.5378   -5.3701   10.6284 C   0  0  0  0  0  0  0  0  0  0  0  0
   19.0556   -5.7577   11.8463 C   0  0  0  0  0  0  0  0  0  0  0  0
   19.1174   -4.8819   12.9683 C   0  0  0  0  0  0  0  0  0  0  0  0
   19.8003   -3.6430   12.8613 C   0  0  0  0  0  0  0  0  0  0  0  0
   20.3569   -3.2266   11.6145 C   0  0  0  0  0  0  0  0  0  0  0  0
   20.1580   -4.0931   10.4891 C   0  0  0  0  0  0  0  0  0  0  0  0
   21.1861   -1.9605   11.4308 C   0  0  0  0  0  0  0  0  0  0  0  0
   19.8805   -2.7841   14.0778 C   0  0  0  0  0  0  0  0  0  0  0  0
   20.7207   -3.7277    9.3017 O   0  0  0  0  0  0  0  0  0  0  0  0
   19.0171   -1.8239   14.2736 O   0  0  0  0  0  0  0  0  0  0  0  0
   21.7483   -0.9265   17.9245 C   0  0  0  0  0  0  0  0  0  0  0  0
   20.8178   -3.0981   14.9573 N   0  0  0  0  0  0  0  0  0  0  0  0
   22.0816   -1.4271   19.0191 O   0  0  0  0  0  0  0  0  0  0  0  0
   21.9180   -1.6228   16.5746 C   0  0  2  0  0  0  0  0  0  0  0  0
   19.8518   -4.9579   16.8876 C   0  0  0  0  0  0  0  0  0  0  0  0
   20.7972   -3.8679   17.3279 C   0  0  0  0  0  0  0  0  0  0  0  0
   17.9752   -6.8777   15.9339 C   0  0  0  0  0  0  0  0  0  0  0  0
   20.7270   -2.5934   16.3780 C   0  0  2  0  0  0  0  0  0  0  0  0
   23.1518   -2.3372   16.6179 O   0  0  0  0  0  0  0  0  0  0  0  0
   20.1930   -5.7726   15.7632 C   0  0  0  0  0  0  0  0  0  0  0  0
   18.5852   -5.1254   17.4889 C   0  0  0  0  0  0  0  0  0  0  0  0
   19.2245   -6.7251   15.3110 C   0  0  0  0  0  0  0  0  0  0  0  0
   17.6791   -6.0739   17.0399 C   0  0  0  0  0  0  0  0  0  0  0  0
   19.2556    0.1392   19.5043 C   0  0  0  0  0  0  0  0  0  0  0  0
   21.1449    0.3069   17.9199 N   0  0  0  0  0  0  0  0  0  0  0  0
   18.6800   -0.6769   18.7247 O   0  0  0  0  0  0  0  0  0  0  0  0
   20.5707    0.8697   19.1619 C   0  0  1  0  0  0  0  0  0  0  0  0
   20.4156    2.3940   18.8832 C   0  0  2  0  0  0  0  0  0  0  0  0
   20.9606    1.1311   16.6686 C   0  0  0  0  0  0  0  0  0  0  0  0
   21.7928    3.0465   19.0177 C   0  0  0  0  0  0  0  0  0  0  0  0
   19.4441    3.0920   19.8535 C   0  0  0  0  0  0  0  0  0  0  0  0
   19.8379    2.4720   17.1476 S   0  0  0  0  0  0  0  0  0  0  0  0
   18.7194    0.4948   20.7493 N   0  0  0  0  0  0  0  0  0  0  0  0
   18.1291   -0.5211   21.6539 C   0  0  0  0  0  0  0  0  0  0  0  0
   18.4654   -0.1796   23.1122 C   0  0  0  0  0  0  0  0  0  0  0  0
   19.7758   -0.3078   23.6214 C   0  0  0  0  0  0  0  0  0  0  0  0
   19.9898   -0.0544   24.9802 C   0  0  0  0  0  0  0  0  0  0  0  0
   18.9102    0.3465   25.8069 C   0  0  0  0  0  0  0  0  0  0  0  0
   17.6403    0.4699   25.3203 C   0  0  0  0  0  0  0  0  0  0  0  0
   17.4203    0.1865   23.9527 C   0  0  0  0  0  0  0  0  0  0  0  0
   20.8899   -0.7720   22.7665 C   0  0  0  0  0  0  0  0  0  0  0  0
  1  2  2  0
  2  3  1  0
  3  4  2  0
  4  5  1  0
  1  6  1  0
  5  6  2  0
  5  7  1  0
  4  8  1  0
  6  9  1  0
  8 10  2  0
  8 12  1  0
 11 13  2  0
 11 14  1  0
 15 16  1  0
 12 18  1  0
 18 16  1  1
 14 18  1  0
 14 19  1  1
 15 20  2  0
 15 21  1  0
 20 22  1  0
 17 22  2  0
 17 23  1  0
 21 23  2  0
 11 25  1  0
 24 26  2  0
 25 27  1  0
 27 24  1  6
 27 28  1  0
 25 29  1  0
 28 30  1  6
 28 31  1  0
 29 32  1  0
 28 32  1  0
 24 33  1  0
 33 34  1  0
 34 35  1  0
 35 36  2  0
 36 37  1  0
 37 38  2  0
 38 39  1  0
 35 40  1  0
 39 40  2  0
 36 41  1  0
M  END
