7S9H_7PP_A_301
     RDKit          3D

 29 31  0  0  0  0  0  0  0  0999 V2000
   30.5751    6.8461  -27.2849 Cl  0  0  0  0  0  0  0  0  0  0  0  0
   31.6827    7.6007  -26.1406 C   0  0  0  0  0  0  0  0  0  0  0  0
   32.8289    7.1133  -26.5689 N   0  0  0  0  0  0  0  0  0  0  0  0
   33.9379    7.3850  -25.8836 C   0  0  0  0  0  0  0  0  0  0  0  0
   35.1097    6.7996  -26.3840 N   0  0  0  0  0  0  0  0  0  0  0  0
   33.9271    8.2165  -24.8729 N   0  0  0  0  0  0  0  0  0  0  0  0
   32.7799    8.7308  -24.4855 C   0  0  0  0  0  0  0  0  0  0  0  0
   31.6177    8.4085  -25.0723 C   0  0  0  0  0  0  0  0  0  0  0  0
   32.5038    9.5922  -23.4590 N   0  0  0  0  0  0  0  0  0  0  0  0
   33.4310   10.1734  -22.5810 C   0  0  0  0  0  0  0  0  0  0  0  0
   33.1422   11.6209  -22.3552 C   0  0  0  0  0  0  0  0  0  0  0  0
   33.8141   12.6292  -23.0245 C   0  0  0  0  0  0  0  0  0  0  0  0
   34.8683   12.3583  -24.0198 C   0  0  0  0  0  0  0  0  0  0  0  0
   33.4658   13.9420  -22.7273 C   0  0  0  0  0  0  0  0  0  0  0  0
   34.1298   14.9832  -23.3327 O   0  0  0  0  0  0  0  0  0  0  0  0
   33.3225   15.7553  -24.1415 C   0  0  0  0  0  0  0  0  0  0  0  0
   32.5199   14.2346  -21.7464 C   0  0  0  0  0  0  0  0  0  0  0  0
   32.1597   15.6671  -21.3527 C   0  0  0  0  0  0  0  0  0  0  0  0
   31.8985   13.1465  -21.1497 C   0  0  0  0  0  0  0  0  0  0  0  0
   32.2320   11.8461  -21.3981 N   0  0  0  0  0  0  0  0  0  0  0  0
   31.1543    9.8235  -23.4305 C   0  0  0  0  0  0  0  0  0  0  0  0
   30.5563    9.0999  -24.4059 C   0  0  0  0  0  0  0  0  0  0  0  0
   29.0889    9.1266  -24.6380 C   0  0  0  0  0  0  0  0  0  0  0  0
   27.9419    9.1300  -24.8236 C   0  0  0  0  0  0  0  0  0  0  0  0
   26.4520    9.1931  -25.0504 C   0  0  0  0  0  0  0  0  0  0  0  0
   25.8365    7.8222  -24.9410 C   0  0  2  0  0  0  0  0  0  0  0  0
   26.8768    6.8230  -24.5289 C   0  0  0  0  0  0  0  0  0  0  0  0
   25.2855    7.4193  -26.2894 C   0  0  0  0  0  0  0  0  0  0  0  0
   24.8334    7.7927  -23.9761 O   0  0  0  0  0  0  0  0  0  0  0  0
  1  2  1  0
  2  3  2  0
  3  4  1  0
  4  5  1  0
  4  6  2  0
  6  7  1  0
  2  8  1  0
  7  8  2  0
  7  9  1  0
  9 10  1  0
 10 11  1  0
 11 12  2  0
 12 13  1  0
 12 14  1  0
 14 15  1  0
 15 16  1  0
 14 17  2  0
 17 18  1  0
 17 19  1  0
 11 20  1  0
 19 20  2  0
  9 21  1  0
  8 22  1  0
 21 22  2  0
 22 23  1  0
 23 24  3  0
 24 25  1  0
 25 26  1  0
 26 27  1  1
 26 28  1  0
 26 29  1  0
M  END
