1SG0_STL_B_502
     RDKit          3D

 17 18  0  0  0  0  0  0  0  0999 V2000
   38.5213   16.0424   14.2276 C   0  0  0  0  0  0  0  0  0  0  0  0
   39.7332   15.4376   14.7009 C   0  0  0  0  0  0  0  0  0  0  0  0
   39.6940   14.5115   15.7939 C   0  0  0  0  0  0  0  0  0  0  0  0
   38.4456   14.2002   16.4348 C   0  0  0  0  0  0  0  0  0  0  0  0
   37.2276   14.7980   15.9778 C   0  0  0  0  0  0  0  0  0  0  0  0
   37.2678   15.7265   14.8631 C   0  0  0  0  0  0  0  0  0  0  0  0
   35.9797   14.4681   16.6679 C   0  0  0  0  0  0  0  0  0  0  0  0
   34.7363   14.9963   16.2662 C   0  0  0  0  0  0  0  0  0  0  0  0
   33.4920   14.7099   16.9589 C   0  0  0  0  0  0  0  0  0  0  0  0
   33.4297   13.8551   18.1249 C   0  0  0  0  0  0  0  0  0  0  0  0
   32.1656   13.6206   18.7754 C   0  0  0  0  0  0  0  0  0  0  0  0
   30.9693   14.2345   18.2631 C   0  0  0  0  0  0  0  0  0  0  0  0
   31.0396   15.0713   17.1076 C   0  0  0  0  0  0  0  0  0  0  0  0
   32.2928   15.3051   16.4651 C   0  0  0  0  0  0  0  0  0  0  0  0
   29.7702   14.0346   18.8638 O   0  0  0  0  0  0  0  0  0  0  0  0
   40.8470   13.9388   16.2455 O   0  0  0  0  0  0  0  0  0  0  0  0
   38.5660   16.9053   13.2009 O   0  0  0  0  0  0  0  0  0  0  0  0
  1  2  2  0
  2  3  1  0
  3  4  2  0
  4  5  1  0
  1  6  1  0
  5  6  2  0
  5  7  1  0
  7  8  2  0
  8  9  1  0
  9 10  2  0
 10 11  1  0
 11 12  2  0
 12 13  1  0
  9 14  1  0
 13 14  2  0
 12 15  1  0
  3 16  1  0
  1 17  1  0
M  END
