7NLV_UJE_CCC_201
     RDKit          3D

 21 23  0  0  0  0  0  0  0  0999 V2000
    9.2787    2.0132   15.2547 O   0  0  0  0  0  0  0  0  0  0  0  0
   -0.0688   -0.3046   13.0733 O   0  0  0  0  0  0  0  0  0  0  0  0
    8.9603    0.8285   15.2050 C   0  0  0  0  0  0  0  0  0  0  0  0
    7.8518    0.2935   16.0867 C   0  0  0  0  0  0  0  0  0  0  0  0
    6.5318    0.1651   15.3950 C   0  0  0  0  0  0  0  0  0  0  0  0
    5.5481   -0.6652   16.2069 C   0  0  0  0  0  0  0  0  0  0  0  0
    4.0757   -0.3701   15.9541 C   0  0  0  0  0  0  0  0  0  0  0  0
    3.1795   -1.6018   16.0203 C   0  0  2  0  0  0  0  0  0  0  0  0
    3.4269   -2.7959   14.6552 S   0  0  0  0  0  0  0  0  0  0  0  0
    1.9542   -3.6358   15.2824 C   0  0  0  0  0  0  0  0  0  0  0  0
    0.9230   -2.5514   15.5863 C   0  0  2  0  0  0  0  0  0  0  0  0
    0.2202   -2.1599   14.3904 N   0  0  0  0  0  0  0  0  0  0  0  0
    0.4592   -0.8852   14.0399 C   0  0  0  0  0  0  0  0  0  0  0  0
    1.2914   -0.3460   14.9622 N   0  0  0  0  0  0  0  0  0  0  0  0
    1.6613   -1.2755   16.0022 C   0  0  2  0  0  0  0  0  0  0  0  0
    9.5415   -0.0336   14.3543 N   0  0  0  0  0  0  0  0  0  0  0  0
   10.8990   -0.5221   14.5578 C   0  0  1  0  0  0  0  0  0  0  0  0
   11.1356   -1.1857   15.9001 C   0  0  0  0  0  0  0  0  0  0  0  0
   12.3960   -1.9961   15.6779 C   0  0  0  0  0  0  0  0  0  0  0  0
   12.5833   -2.0774   14.2266 N   0  0  0  0  0  0  0  0  0  0  0  0
   11.3449   -1.6000   13.5931 C   0  0  0  0  0  0  0  0  0  0  0  0
  1  3  2  0
  3  4  1  0
  4  5  1  0
  5  6  1  0
  6  7  1  0
  8  7  1  6
  8  9  1  0
  9 10  1  0
 11 10  1  6
 11 12  1  0
 12 13  1  0
  2 13  2  0
 13 14  1  0
 11 15  1  0
 15 14  1  6
  8 15  1  0
  3 16  1  0
 17 16  1  6
 17 18  1  0
 18 19  1  0
 19 20  1  0
 17 21  1  0
 20 21  1  0
M  END
