7LZQ_YJV_A_201
     RDKit          3D

 35 37  0  0  0  0  0  0  0  0999 V2000
   -7.6472   -0.4556  -20.1769 C   0  0  0  0  0  0  0  0  0  0  0  0
   -8.9161    0.5027  -17.9060 C   0  0  0  0  0  0  0  0  0  0  0  0
   -9.5623   -3.3770  -15.1483 C   0  0  0  0  0  0  0  0  0  0  0  0
  -10.6096   -2.6666  -15.7594 C   0  0  0  0  0  0  0  0  0  0  0  0
  -11.0558    0.1420  -13.6447 C   0  0  0  0  0  0  0  0  0  0  0  0
   -8.8567   -1.0338  -19.7774 C   0  0  0  0  0  0  0  0  0  0  0  0
  -11.0337   -1.4921  -15.1430 C   0  0  0  0  0  0  0  0  0  0  0  0
  -11.9991   -0.6379  -15.5401 N   0  0  0  0  0  0  0  0  0  0  0  0
  -12.8033   -0.6990  -16.7599 C   0  0  2  0  0  0  0  0  0  0  0  0
  -11.9449   -0.3933  -17.9487 C   0  0  0  0  0  0  0  0  0  0  0  0
  -12.2851    0.5347  -18.7317 O   0  0  0  0  0  0  0  0  0  0  0  0
   -7.8808   -3.6868  -13.3810 C   0  0  2  0  0  0  0  0  0  0  0  0
   -7.7069    1.0470  -18.3422 C   0  0  0  0  0  0  0  0  0  0  0  0
  -12.0081    0.3677  -14.6323 C   0  0  0  0  0  0  0  0  0  0  0  0
   -9.4081   -1.7557  -13.3943 C   0  0  0  0  0  0  0  0  0  0  0  0
   -9.5124   -0.5414  -18.6332 C   0  0  0  0  0  0  0  0  0  0  0  0
  -10.4475   -1.0472  -13.9928 C   0  0  0  0  0  0  0  0  0  0  0  0
   -7.1042    0.5621  -19.4588 N   0  0  0  0  0  0  0  0  0  0  0  0
  -10.7409   -1.1393  -18.1833 N   0  0  0  0  0  0  0  0  0  0  0  0
   -8.9827   -2.9260  -13.9818 N   0  0  0  0  0  0  0  0  0  0  0  0
   -8.8714   -1.3238  -12.3369 O   0  0  0  0  0  0  0  0  0  0  0  0
   -9.5371   -2.3378  -20.7420 Cl  0  0  0  0  0  0  0  0  0  0  0  0
   -7.1366   -0.8153  -21.0605 H   0  0  0  0  0  0  0  0  0  0  0  0
   -9.3676    0.8776  -16.9968 H   0  0  0  0  0  0  0  0  0  0  0  0
   -9.2183   -4.2912  -15.6173 H   0  0  0  0  0  0  0  0  0  0  0  0
  -11.0617   -3.0269  -16.6730 H   0  0  0  0  0  0  0  0  0  0  0  0
  -10.8296    0.7749  -12.7968 H   0  0  0  0  0  0  0  0  0  0  0  0
  -13.6324    0.0396  -16.7046 H   0  0  0  0  0  0  0  0  0  0  0  0
  -13.2669   -1.7036  -16.8583 H   0  0  0  0  0  0  0  0  0  0  0  0
   -8.1906   -4.7210  -13.1164 H   0  0  0  0  0  0  0  0  0  0  0  0
   -7.5381   -3.1878  -12.4493 H   0  0  0  0  0  0  0  0  0  0  0  0
   -7.0338   -3.7462  -14.0971 H   0  0  0  0  0  0  0  0  0  0  0  0
   -7.2428    1.8512  -17.7872 H   0  0  0  0  0  0  0  0  0  0  0  0
  -12.6588    1.2310  -14.6869 H   0  0  0  0  0  0  0  0  0  0  0  0
  -10.7698   -2.1737  -18.0414 H   0  0  0  0  0  0  0  0  0  0  0  0
  3  4  2  0
  1  6  2  0
  4  7  1  0
  7  8  1  0
  8  9  1  0
  9 10  1  0
 10 11  2  0
  2 13  1  0
  8 14  1  0
  5 14  2  0
  6 16  1  0
  2 16  2  0
  5 17  1  0
  7 17  2  0
 15 17  1  0
  1 18  1  0
 13 18  2  0
 16 19  1  0
 10 19  1  0
 15 20  1  0
  3 20  1  0
 12 20  1  0
 15 21  2  0
  6 22  1  0
  1 23  1  0
  2 24  1  0
  3 25  1  0
  4 26  1  0
  5 27  1  0
  9 28  1  1
  9 29  1  0
 12 30  1  1
 12 31  1  0
 12 32  1  0
 13 33  1  0
 14 34  1  0
 19 35  1  0
M  END
