7OFF_VCB_A_712
     RDKit          3D

 27 30  0  0  0  0  0  0  0  0999 V2000
   42.4609  -26.1103    8.9211 C   0  0  0  0  0  0  0  0  0  0  0  0
   47.5830  -18.2061    7.4687 C   0  0  0  0  0  0  0  0  0  0  0  0
   47.0037  -18.1287    8.7050 C   0  0  0  0  0  0  0  0  0  0  0  0
   45.6364  -18.3596    8.8579 C   0  0  0  0  0  0  0  0  0  0  0  0
   42.6848  -17.7533    8.5613 C   0  0  0  0  0  0  0  0  0  0  0  0
   42.2821  -22.1622   10.2332 C   0  0  0  0  0  0  0  0  0  0  0  0
   41.9613  -23.1161   11.1789 C   0  0  0  0  0  0  0  0  0  0  0  0
   42.0019  -24.4545   10.8066 C   0  0  0  0  0  0  0  0  0  0  0  0
   43.0001  -24.5035    7.3249 C   0  0  0  0  0  0  0  0  0  0  0  0
   43.3705  -24.0424    6.0896 C   0  0  0  0  0  0  0  0  0  0  0  0
   43.6031  -24.9721    5.0935 C   0  0  0  0  0  0  0  0  0  0  0  0
   42.3593  -24.7773    9.5141 C   0  0  0  0  0  0  0  0  0  0  0  0
   43.4734  -26.3268    5.3075 C   0  0  0  0  0  0  0  0  0  0  0  0
   43.1048  -26.7774    6.5356 C   0  0  0  0  0  0  0  0  0  0  0  0
   42.8747  -25.8467    7.5247 C   0  0  0  0  0  0  0  0  0  0  0  0
   42.6808  -23.8190    8.5660 C   0  0  0  0  0  0  0  0  0  0  0  0
   42.6432  -22.4967    8.9260 C   0  0  0  0  0  0  0  0  0  0  0  0
   42.9537  -21.3850    8.0501 C   0  0  0  0  0  0  0  0  0  0  0  0
   43.3578  -18.9152    7.9267 C   0  0  1  0  0  0  0  0  0  0  0  0
   44.8231  -18.6708    7.7878 C   0  0  0  0  0  0  0  0  0  0  0  0
   45.4301  -18.7427    6.5528 C   0  0  0  0  0  0  0  0  0  0  0  0
   46.7913  -18.5173    6.3703 C   0  0  0  0  0  0  0  0  0  0  0  0
   43.0594  -20.0996    8.6819 N   0  0  0  0  0  0  0  0  0  0  0  0
   42.2535  -27.2251    9.4437 O   0  0  0  0  0  0  0  0  0  0  0  0
   41.4392  -17.3670    8.0290 O   0  0  0  0  0  0  0  0  0  0  0  0
   43.1684  -17.1114    9.5346 O   0  0  0  0  0  0  0  0  0  0  0  0
   43.1392  -21.4266    6.8273 O   0  0  0  0  0  0  0  0  0  0  0  0
  2  3  2  0
  3  4  1  0
  6  7  2  0
  7  8  1  0
  9 10  2  0
 10 11  1  0
  1 12  1  0
  8 12  2  0
 11 13  2  0
 13 14  1  0
 14 15  2  0
  9 15  1  0
  1 15  1  0
  9 16  1  0
 12 16  1  0
 16 17  2  0
  6 17  1  0
 17 18  1  0
  5 19  1  0
  4 20  2  0
 19 20  1  0
 20 21  1  0
  2 22  1  0
 21 22  2  0
 19 23  1  1
 18 23  1  0
  1 24  2  0
  5 25  1  0
  5 26  2  0
 18 27  2  0
M  END
$$$$
