7LOU_IFM_B_612
     RDKit          3D

 23 23  0  0  0  0  0  0  0  0999 V2000
  -16.8085    1.8459   88.6161 O   0  0  0  0  0  0  0  0  0  0  0  0
  -17.2696    0.4983   88.8318 C   0  0  1  0  0  0  0  0  0  0  0  0
  -18.5036    0.2042   87.9841 C   0  0  2  0  0  0  0  0  0  0  0  0
  -19.5905    1.0296   88.3711 O   0  0  0  0  0  0  0  0  0  0  0  0
  -18.9384   -1.2400   88.1687 C   0  0  0  0  0  0  0  0  0  0  0  0
  -17.8443   -2.1884   87.8879 N   0  0  0  0  0  0  0  0  0  0  0  0
  -16.6961   -1.9425   88.7715 C   0  0  0  0  0  0  0  0  0  0  0  0
  -16.1742   -0.5265   88.5230 C   0  0  2  0  0  0  0  0  0  0  0  0
  -14.8890   -0.2657   89.2816 C   0  0  0  0  0  0  0  0  0  0  0  0
  -14.5071    1.1010   89.2245 O   0  0  0  0  0  0  0  0  0  0  0  0
  -17.5236    2.4689   88.8199 H   0  0  0  0  0  0  0  0  0  0  0  0
  -17.5281    0.4143   89.8667 H   0  0  0  0  0  0  0  0  0  0  0  0
  -18.2421    0.3931   86.9638 H   0  0  0  0  0  0  0  0  0  0  0  0
  -19.8191    0.8504   89.2966 H   0  0  0  0  0  0  0  0  0  0  0  0
  -19.7510   -1.4435   87.5031 H   0  0  0  0  0  0  0  0  0  0  0  0
  -19.2318   -1.3680   89.1897 H   0  0  0  0  0  0  0  0  0  0  0  0
  -17.5486   -2.0790   86.9179 H   0  0  0  0  0  0  0  0  0  0  0  0
  -15.9231   -2.6522   88.5620 H   0  0  0  0  0  0  0  0  0  0  0  0
  -16.9967   -2.0439   89.7934 H   0  0  0  0  0  0  0  0  0  0  0  0
  -15.9249   -0.4254   87.4874 H   0  0  0  0  0  0  0  0  0  0  0  0
  -14.1087   -0.8607   88.8549 H   0  0  0  0  0  0  0  0  0  0  0  0
  -15.0526   -0.5212   90.3077 H   0  0  0  0  0  0  0  0  0  0  0  0
  -14.3531    1.3554   88.3011 H   0  0  0  0  0  0  0  0  0  0  0  0
  2  1  1  0
  2  3  1  0
  3  4  1  0
  3  5  1  0
  5  6  1  0
  6  7  1  0
  2  8  1  0
  7  8  1  0
  8  9  1  0
  9 10  1  0
  1 11  1  0
  2 12  1  1
  3 13  1  6
  4 14  1  0
  5 15  1  0
  5 16  1  0
  6 17  1  0
  7 18  1  0
  7 19  1  0
  8 20  1  6
  9 21  1  0
  9 22  1  0
 10 23  1  0
M  END
