7RC3_SAH_A_405
     RDKit          3D

 26 28  0  0  0  0  0  0  0  0999 V2000
  -49.6627   17.5079    5.6427 N   0  0  0  0  0  0  0  0  0  0  0  0
  -48.8102   17.8854    6.7363 C   0  0  1  0  0  0  0  0  0  0  0  0
  -47.3692   17.6473    6.5037 C   0  0  0  0  0  0  0  0  0  0  0  0
  -46.4878   17.3810    7.6577 C   0  0  0  0  0  0  0  0  0  0  0  0
  -44.7542   17.7376    7.3930 S   0  0  0  0  0  0  0  0  0  0  0  0
  -48.9837   19.4040    6.8268 C   0  0  0  0  0  0  0  0  0  0  0  0
  -48.6228   20.0042    7.8656 O   0  0  0  0  0  0  0  0  0  0  0  0
  -49.5360   20.1075    5.7670 O   0  0  0  0  0  0  0  0  0  0  0  0
  -43.7065   16.3578    6.9993 C   0  0  0  0  0  0  0  0  0  0  0  0
  -44.4460   15.0934    7.4854 C   0  0  1  0  0  0  0  0  0  0  0  0
  -43.8743   13.9891    6.8742 O   0  0  0  0  0  0  0  0  0  0  0  0
  -44.2256   15.0073    8.9607 C   0  0  1  0  0  0  0  0  0  0  0  0
  -45.4079   14.6191    9.6198 O   0  0  0  0  0  0  0  0  0  0  0  0
  -43.2621   13.8413    9.0615 C   0  0  1  0  0  0  0  0  0  0  0  0
  -43.4324   13.1930   10.2688 O   0  0  0  0  0  0  0  0  0  0  0  0
  -43.6818   13.0320    7.8635 C   0  0  2  0  0  0  0  0  0  0  0  0
  -42.7497   12.0274    7.4687 N   0  0  0  0  0  0  0  0  0  0  0  0
  -41.4217   12.1653    7.4796 C   0  0  0  0  0  0  0  0  0  0  0  0
  -40.8379   11.0316    7.0462 N   0  0  0  0  0  0  0  0  0  0  0  0
  -41.8139   10.1480    6.7513 C   0  0  0  0  0  0  0  0  0  0  0  0
  -41.8317    8.8541    6.2767 C   0  0  0  0  0  0  0  0  0  0  0  0
  -40.5973    8.1819    5.9925 N   0  0  0  0  0  0  0  0  0  0  0  0
  -43.0023    8.2050    6.0734 N   0  0  0  0  0  0  0  0  0  0  0  0
  -44.1673    8.8390    6.3409 C   0  0  0  0  0  0  0  0  0  0  0  0
  -44.1411   10.0911    6.7998 N   0  0  0  0  0  0  0  0  0  0  0  0
  -43.0021   10.7889    7.0219 C   0  0  0  0  0  0  0  0  0  0  0  0
  2  1  1  6
  2  3  1  0
  3  4  1  1
  4  5  1  1
  2  6  1  0
  6  7  2  0
  6  8  1  0
  9  5  1  1
 10  9  1  0
 10 11  1  6
 10 12  1  0
 12 13  1  1
 12 14  1  0
 14 15  1  1
 11 16  1  0
 14 16  1  0
 16 17  1  6
 17 18  1  0
 18 19  2  0
 19 20  1  0
 20 21  2  0
 21 22  1  0
 21 23  1  0
 23 24  2  0
 24 25  1  0
 17 26  1  0
 20 26  1  0
 25 26  2  0
M  END
$$$$
