7AKL_RK5_A_501
     RDKit          3D

 19 21  0  0  0  0  0  0  0  0999 V2000
   35.2925    0.8800    7.2616 C   0  0  0  0  0  0  0  0  0  0  0  0
   35.8964    1.2219    8.5669 C   0  0  0  0  0  0  0  0  0  0  0  0
   37.1866    1.1450    8.9724 C   0  0  0  0  0  0  0  0  0  0  0  0
   38.4043    0.7552    8.1937 C   0  0  0  0  0  0  0  0  0  0  0  0
   37.2151    1.6528   10.3170 C   0  0  0  0  0  0  0  0  0  0  0  0
   38.2228    1.8423   11.2570 C   0  0  0  0  0  0  0  0  0  0  0  0
   37.8944    2.3243   12.5145 C   0  0  0  0  0  0  0  0  0  0  0  0
   36.5315    2.6030   12.8011 C   0  0  0  0  0  0  0  0  0  0  0  0
   35.5142    2.4196   11.8795 C   0  0  0  0  0  0  0  0  0  0  0  0
   35.8993    1.9471   10.6483 C   0  0  0  0  0  0  0  0  0  0  0  0
   35.0667    1.6922    9.5736 O   0  0  0  0  0  0  0  0  0  0  0  0
   38.9625    2.5922   13.5259 C   0  0  0  0  0  0  0  0  0  0  0  0
   40.2987    2.2595   13.2766 C   0  0  0  0  0  0  0  0  0  0  0  0
   41.2939    2.5437   14.2283 C   0  0  0  0  0  0  0  0  0  0  0  0
   42.5934    2.2076   14.0165 N   0  0  0  0  0  0  0  0  0  0  0  0
   41.0115    3.2451   15.3382 N   0  0  0  0  0  0  0  0  0  0  0  0
   39.7387    3.6190   15.5699 C   0  0  0  0  0  0  0  0  0  0  0  0
   39.5140    4.3199   16.6950 N   0  0  0  0  0  0  0  0  0  0  0  0
   38.6836    3.3012   14.6936 C   0  0  0  0  0  0  0  0  0  0  0  0
  1  2  1  0
  2  3  2  0
  3  4  1  0
  3  5  1  0
  5  6  1  0
  6  7  2  0
  7  8  1  0
  8  9  2  0
  5 10  2  0
  9 10  1  0
  2 11  1  0
 10 11  1  0
  7 12  1  0
 12 13  2  0
 13 14  1  0
 14 15  1  0
 14 16  2  0
 16 17  1  0
 17 18  1  0
 17 19  2  0
 12 19  1  0
M  END
