
     RDKit          3D

 18 20  0  0  0  0  0  0  0  0999 V2000
   15.8039   21.8538   10.1069 O   0  0  0  0  0  0  0  0  0  0  0  0
   17.7976   18.5915    9.7458 O   0  0  0  0  0  0  0  0  0  0  0  0
   22.5396   20.8609    9.0725 O   0  0  0  0  0  0  0  0  0  0  0  0
   23.2090   25.2357    9.9931 O   0  0  0  0  0  0  0  0  0  0  0  0
   20.6683   22.1832    9.4618 N   0  0  0  0  0  0  0  0  0  0  0  0
   22.8414   23.0338    9.5939 N   0  0  0  0  0  0  0  0  0  0  0  0
   17.3647   20.7103    8.6225 C   0  0  2  0  0  0  0  0  0  0  0  0
   17.6647   19.9986    9.9657 C   0  0  2  0  0  0  0  0  0  0  0  0
   19.0004   20.5802   10.4650 C   0  0  0  0  0  0  0  0  0  0  0  0
   19.7173   21.1101    9.2320 C   0  0  1  0  0  0  0  0  0  0  0  0
   18.7188   21.1594    8.1140 C   0  0  1  0  0  0  0  0  0  0  0  0
   16.4261   21.9071    8.8252 C   0  0  0  0  0  0  0  0  0  0  0  0
   22.0390   21.9468    9.3611 C   0  0  0  0  0  0  0  0  0  0  0  0
   19.8761   20.2088    8.0156 C   0  0  0  0  0  0  0  0  0  0  0  0
   22.4217   24.3082    9.8420 C   0  0  0  0  0  0  0  0  0  0  0  0
   20.9545   24.5078    9.9068 C   0  0  0  0  0  0  0  0  0  0  0  0
   20.1663   23.4436    9.7120 C   0  0  0  0  0  0  0  0  0  0  0  0
   20.4566   25.8881   10.1818 C   0  0  0  0  0  0  0  0  0  0  0  0
  8  2  1  6
  7  8  1  0
  8  9  1  0
 10  5  1  1
  9 10  1  0
  7 11  1  0
 10 11  1  0
  1 12  1  0
  7 12  1  1
  3 13  2  0
  5 13  4  0
  6 13  4  0
 10 14  1  0
 11 14  1  6
  4 15  2  0
  6 15  4  0
 15 16  4  0
  5 17  4  0
 16 17  4  0
 16 18  1  0
M  END
