7CD9_FVR_A_501
     RDKit          3D

 33 37  0  0  0  0  0  0  0  0999 V2000
   17.8340    6.2450   10.8800 C   0  0  0  0  0  0  0  0  0  0  0  0
   18.5890    6.5290   12.2120 C   0  0  1  0  0  0  0  0  0  0  0  0
   17.8030    7.4080   13.0700 C   0  0  0  0  0  0  0  0  0  0  0  0
   19.9890    4.4020   12.3760 C   0  0  0  0  0  0  0  0  0  0  0  0
   21.3000    2.4700   12.5690 C   0  0  0  0  0  0  0  0  0  0  0  0
   22.1470    3.0440   11.6210 C   0  0  0  0  0  0  0  0  0  0  0  0
   21.8560    4.2670   11.0840 C   0  0  0  0  0  0  0  0  0  0  0  0
   22.8390    4.5850   10.1300 C   0  0  0  0  0  0  0  0  0  0  0  0
   15.3610   11.7430   14.5000 C   0  0  0  0  0  0  0  0  0  0  0  0
   15.0120   10.4100   14.6770 C   0  0  0  0  0  0  0  0  0  0  0  0
   15.6710    9.4040   13.9780 C   0  0  0  0  0  0  0  0  0  0  0  0
   16.7570    9.7260   13.1900 C   0  0  0  0  0  0  0  0  0  0  0  0
   17.1090   11.0480   13.0020 C   0  0  0  0  0  0  0  0  0  0  0  0
   16.4320   12.0490   13.7030 C   0  0  0  0  0  0  0  0  0  0  0  0
   17.5660    8.6730   12.3510 C   0  0  2  0  0  0  0  0  0  0  0  0
   16.7720    8.3640   11.0550 C   0  0  0  0  0  0  0  0  0  0  0  0
   23.7060    3.5080   10.1570 C   0  0  0  0  0  0  0  0  0  0  0  0
   19.3070    2.6260   13.8960 C   0  0  0  0  0  0  0  0  0  0  0  0
   16.7860    7.2050    9.1550 C   0  0  0  0  0  0  0  0  0  0  0  0
   13.5420   12.5410   15.9140 C   0  0  0  0  0  0  0  0  0  0  0  0
   12.8880   13.8730   16.3190 C   0  0  0  0  0  0  0  0  0  0  0  0
   12.1510   14.5930   15.3990 C   0  0  0  0  0  0  0  0  0  0  0  0
   11.5450   15.7900   15.7490 C   0  0  0  0  0  0  0  0  0  0  0  0
   11.6990   16.2810   17.0330 C   0  0  0  0  0  0  0  0  0  0  0  0
   12.4390   15.5740   17.9480 C   0  0  0  0  0  0  0  0  0  0  0  0
   13.0170   14.3690   17.5910 C   0  0  0  0  0  0  0  0  0  0  0  0
   17.5020    7.4580   10.1880 N   0  0  0  0  0  0  0  0  0  0  0  0
   18.8540    5.1590   12.8080 N   0  0  0  0  0  0  0  0  0  0  0  0
   20.2420    3.2020   12.9320 N   0  0  0  0  0  0  0  0  0  0  0  0
   20.7570    4.9570   11.4550 N   0  0  0  0  0  0  0  0  0  0  0  0
   23.3110    2.6020   11.0410 N   0  0  0  0  0  0  0  0  0  0  0  0
   21.5120    1.4100   13.1200 O   0  0  0  0  0  0  0  0  0  0  0  0
   14.7260   12.8160   15.1840 O   0  0  0  0  0  0  0  0  0  0  0  0
  1  2  1  0
  2  3  1  0
  5  6  1  0
  6  7  2  0
  7  8  1  0
  9 10  2  0
 10 11  1  0
 11 12  2  0
 12 13  1  0
 13 14  2  0
  9 14  1  0
  3 15  1  0
 15 12  1  1
 15 16  1  0
  8 17  2  0
 20 21  1  0
 21 22  2  0
 22 23  1  0
 23 24  2  0
 24 25  1  0
 21 26  1  0
 25 26  2  0
 19 27  1  0
  1 27  1  0
 16 27  1  0
  2 28  1  1
  4 28  1  0
  4 29  1  0
  5 29  1  0
 18 29  1  0
  7 30  1  0
  4 30  2  0
 17 31  1  0
  6 31  1  0
  5 32  2  0
  9 33  1  0
 20 33  1  0
M  END
$$$$
