7CD9_FVR_A_501
     RDKit          3D

 62 66  0  0  0  0  0  0  0  0999 V2000
    2.1531   -0.1996    3.6743 C   0  0  0  0  0  0  0  0  0  0  0  0
    0.7366   -0.7081    3.3470 C   0  0  1  0  0  0  0  0  0  0  0  0
    0.0186    0.2893    2.4078 C   0  0  0  0  0  0  0  0  0  0  0  0
   -0.3956   -2.8391    2.5328 C   0  0  0  0  0  0  0  0  0  0  0  0
   -1.5418   -4.6547    1.4658 C   0  0  0  0  0  0  0  0  0  0  0  0
   -2.6633   -4.3357    2.2177 C   0  0  0  0  0  0  0  0  0  0  0  0
   -2.6283   -3.2949    3.0795 C   0  0  0  0  0  0  0  0  0  0  0  0
   -3.8543   -3.1950    3.6924 C   0  0  0  0  0  0  0  0  0  0  0  0
   -0.9277    2.2350   -2.2284 C   0  0  0  0  0  0  0  0  0  0  0  0
   -0.4848    3.1999   -1.3175 C   0  0  0  0  0  0  0  0  0  0  0  0
    0.1342    2.8213   -0.1230 C   0  0  0  0  0  0  0  0  0  0  0  0
    0.3212    1.4631    0.1832 C   0  0  0  0  0  0  0  0  0  0  0  0
   -0.1298    0.4923   -0.7305 C   0  0  0  0  0  0  0  0  0  0  0  0
   -0.7495    0.8729   -1.9235 C   0  0  0  0  0  0  0  0  0  0  0  0
    0.9937    1.0597    1.4830 C   0  0  2  0  0  0  0  0  0  0  0  0
    2.2828    0.2539    1.2186 C   0  0  0  0  0  0  0  0  0  0  0  0
   -4.6019   -4.2327    3.1384 C   0  0  0  0  0  0  0  0  0  0  0  0
    0.7880   -4.1636    0.8025 C   0  0  0  0  0  0  0  0  0  0  0  0
    4.1313    0.8255    2.7115 C   0  0  0  0  0  0  0  0  0  0  0  0
   -1.9450    1.8297   -4.4935 C   0  0  0  0  0  0  0  0  0  0  0  0
   -0.7476    1.2720   -5.2164 C   0  0  0  0  0  0  0  0  0  0  0  0
    0.2496    2.1368   -5.6971 C   0  0  0  0  0  0  0  0  0  0  0  0
    1.3591    1.6245   -6.3765 C   0  0  0  0  0  0  0  0  0  0  0  0
    1.4772    0.2481   -6.5871 C   0  0  0  0  0  0  0  0  0  0  0  0
    0.4840   -0.6179   -6.1218 C   0  0  0  0  0  0  0  0  0  0  0  0
   -0.6277   -0.1096   -5.4426 C   0  0  0  0  0  0  0  0  0  0  0  0
    3.0098   -0.0946    2.4669 N   0  0  0  0  0  0  0  0  0  0  0  0
    0.7898   -2.0486    2.7451 N   0  0  0  0  0  0  0  0  0  0  0  0
   -0.4074   -3.8824    1.6148 N   0  0  0  0  0  0  0  0  0  0  0  0
   -1.5206   -2.5453    3.2562 N   0  0  0  0  0  0  0  0  0  0  0  0
   -3.8686   -4.9288    2.2360 N   0  0  0  0  0  0  0  0  0  0  0  0
   -1.5767   -5.6312    0.6676 O   0  0  0  0  0  0  0  0  0  0  0  0
   -1.5388    2.6728   -3.4147 O   0  0  0  0  0  0  0  0  0  0  0  0
    2.6299   -0.9004    4.3935 H   0  0  0  0  0  0  0  0  0  0  0  0
    2.0593    0.7866    4.1858 H   0  0  0  0  0  0  0  0  0  0  0  0
    0.1712   -0.7718    4.3033 H   0  0  0  0  0  0  0  0  0  0  0  0
   -0.7581   -0.2445    1.8201 H   0  0  0  0  0  0  0  0  0  0  0  0
   -0.5287    1.0331    3.0280 H   0  0  0  0  0  0  0  0  0  0  0  0
   -4.1678   -2.4772    4.4385 H   0  0  0  0  0  0  0  0  0  0  0  0
   -0.6188    4.2512   -1.5387 H   0  0  0  0  0  0  0  0  0  0  0  0
    0.4678    3.5913    0.5615 H   0  0  0  0  0  0  0  0  0  0  0  0
   -0.0096   -0.5625   -0.5174 H   0  0  0  0  0  0  0  0  0  0  0  0
   -1.0902    0.0986   -2.5951 H   0  0  0  0  0  0  0  0  0  0  0  0
    1.3071    1.9799    2.0265 H   0  0  0  0  0  0  0  0  0  0  0  0
    2.9334    0.8221    0.5148 H   0  0  0  0  0  0  0  0  0  0  0  0
    2.0300   -0.6918    0.6949 H   0  0  0  0  0  0  0  0  0  0  0  0
   -5.6289   -4.4646    3.3871 H   0  0  0  0  0  0  0  0  0  0  0  0
    1.5701   -4.6327    1.4359 H   0  0  0  0  0  0  0  0  0  0  0  0
    0.5711   -4.8448   -0.0463 H   0  0  0  0  0  0  0  0  0  0  0  0
    1.1791   -3.2238    0.3570 H   0  0  0  0  0  0  0  0  0  0  0  0
    3.7730    1.8749    2.7996 H   0  0  0  0  0  0  0  0  0  0  0  0
    4.8657    0.7593    1.8803 H   0  0  0  0  0  0  0  0  0  0  0  0
    4.6654    0.5434    3.6449 H   0  0  0  0  0  0  0  0  0  0  0  0
   -2.5342    2.4376   -5.2117 H   0  0  0  0  0  0  0  0  0  0  0  0
   -2.6170    1.0282   -4.1171 H   0  0  0  0  0  0  0  0  0  0  0  0
    0.1681    3.2056   -5.5428 H   0  0  0  0  0  0  0  0  0  0  0  0
    2.1267    2.2948   -6.7409 H   0  0  0  0  0  0  0  0  0  0  0  0
    2.3366   -0.1470   -7.1132 H   0  0  0  0  0  0  0  0  0  0  0  0
    0.5749   -1.6833   -6.2887 H   0  0  0  0  0  0  0  0  0  0  0  0
   -1.3902   -0.7932   -5.0909 H   0  0  0  0  0  0  0  0  0  0  0  0
    1.7224   -2.4621    2.5216 H   0  0  0  0  0  0  0  0  0  0  0  0
   -4.1802   -5.7529    1.6755 H   0  0  0  0  0  0  0  0  0  0  0  0
  1  2  1  0
  2  3  1  0
  5  6  1  0
  6  7  2  0
  7  8  1  0
  9 10  2  0
 10 11  1  0
 11 12  2  0
 12 13  1  0
 13 14  2  0
  9 14  1  0
  3 15  1  0
 15 12  1  0
 15 16  1  0
  8 17  2  0
 20 21  1  0
 21 22  2  0
 22 23  1  0
 23 24  2  0
 24 25  1  0
 21 26  1  0
 25 26  2  0
 19 27  1  0
  1 27  1  0
 16 27  1  0
  2 28  1  0
  4 28  1  0
  4 29  1  0
  5 29  1  0
 18 29  1  0
  7 30  1  0
  4 30  2  0
 17 31  1  0
  6 31  1  0
  5 32  2  0
  9 33  1  0
 20 33  1  0
  1 34  1  0
  1 35  1  0
  2 36  1  1
  3 37  1  0
  3 38  1  0
  8 39  1  0
 10 40  1  0
 11 41  1  0
 13 42  1  0
 14 43  1  0
 15 44  1  1
 16 45  1  0
 16 46  1  0
 17 47  1  0
 18 48  1  0
 18 49  1  0
 18 50  1  0
 19 51  1  0
 19 52  1  0
 19 53  1  0
 20 54  1  0
 20 55  1  0
 22 56  1  0
 23 57  1  0
 24 58  1  0
 25 59  1  0
 26 60  1  0
 28 61  1  0
 31 62  1  0
M  END
