
     RDKit          3D

 31 33  0  0  0  0  0  0  0  0999 V2000
   50.2121   42.5977  209.1363 P   0  0  0  0  0  5  0  0  0  0  0  0
   49.0861   43.5312  209.4315 O   0  0  0  0  0  0  0  0  0  0  0  0
   50.6823   41.7029  210.3709 O   0  0  0  0  0  0  0  0  0  0  0  0
   51.5699   43.3685  208.8343 O   0  0  0  0  0  0  0  0  0  0  0  0
   50.4465   41.9087  206.4324 P   0  0  1  0  0  5  0  0  0  0  0  0
   51.6312   42.8021  206.2700 O   0  0  0  0  0  0  0  0  0  0  0  0
   50.7094   40.4579  205.8062 O   0  0  0  0  0  0  0  0  0  0  0  0
   50.0422   41.5875  207.9350 O   0  0  0  0  0  0  0  0  0  0  0  0
   48.8553   42.1421  204.1720 P   0  0  2  0  0  5  0  0  0  0  0  0
   49.9977   41.5598  203.4070 O   0  0  0  0  0  0  0  0  0  0  0  0
   48.3842   43.5558  203.5981 O   0  0  0  0  0  0  0  0  0  0  0  0
   49.1184   42.3965  205.7138 O   0  0  0  0  0  0  0  0  0  0  0  0
   47.4998   41.2829  204.0962 O   0  0  0  0  0  0  0  0  0  0  0  0
   47.5935   39.9839  203.5238 C   0  0  0  0  0  0  0  0  0  0  0  0
   46.4498   39.0992  204.0274 C   0  0  1  0  0  0  0  0  0  0  0  0
   45.2260   39.4529  203.3334 O   0  0  0  0  0  0  0  0  0  0  0  0
   46.6976   37.6090  203.7696 C   0  0  1  0  0  0  0  0  0  0  0  0
   46.0651   36.7998  204.7822 O   0  0  0  0  0  0  0  0  0  0  0  0
   45.9619   37.3555  202.4646 C   0  0  1  0  0  0  0  0  0  0  0  0
   45.6153   35.9804  202.3155 O   0  0  0  0  0  0  0  0  0  0  0  0
   44.7501   38.2746  202.6415 C   0  0  2  0  0  0  0  0  0  0  0  0
   44.0556   38.7004  201.4468 N   0  0  0  0  0  0  0  0  0  0  0  0
   44.5603   39.3083  200.3292 C   0  0  0  0  0  0  0  0  0  0  0  0
   43.6305   39.5255  199.4196 N   0  0  0  0  0  0  0  0  0  0  0  0
   42.4656   39.0603  199.9872 C   0  0  0  0  0  0  0  0  0  0  0  0
   41.1394   39.0144  199.5304 C   0  0  0  0  0  0  0  0  0  0  0  0
   40.7438   39.4959  198.2880 N   0  0  0  0  0  0  0  0  0  0  0  0
   40.2008   38.4575  200.3297 N   0  0  0  0  0  0  0  0  0  0  0  0
   40.5811   38.0022  201.5448 C   0  0  0  0  0  0  0  0  0  0  0  0
   41.8117   38.0073  202.0958 N   0  0  0  0  0  0  0  0  0  0  0  0
   42.7086   38.5399  201.2468 C   0  0  0  0  0  0  0  0  0  0  0  0
  1  2  2  0
  1  3  1  0
  1  4  1  0
  5  6  2  0
  5  7  1  6
  1  8  1  0
  5  8  1  0
  9 10  2  0
  9 11  1  6
  5 12  1  0
  9 12  1  0
  9 13  1  0
 13 14  1  0
 15 14  1  6
 15 16  1  0
 15 17  1  0
 17 18  1  1
 17 19  1  0
 19 20  1  1
 16 21  1  0
 19 21  1  0
 21 22  1  6
 22 23  4  0
 23 24  4  0
 24 25  4  0
 25 26  4  0
 26 27  1  0
 26 28  4  0
 28 29  4  0
 29 30  4  0
 22 31  4  0
 25 31  4  0
 30 31  4  0
M  END
