7VKZ_NOJ_A_801
     RDKit          3D

 11 11  0  0  0  0  0  0  0  0999 V2000
   32.1375    2.7799   32.1294 C   0  0  0  0  0  0  0  0  0  0  0  0
   31.5299    2.7309   30.7324 C   0  0  2  0  0  0  0  0  0  0  0  0
   32.3250    1.8802   29.9173 O   0  0  0  0  0  0  0  0  0  0  0  0
   31.4263    4.1226   30.1423 C   0  0  1  0  0  0  0  0  0  0  0  0
   30.7436    4.0536   28.8886 O   0  0  0  0  0  0  0  0  0  0  0  0
   30.6010    5.0127   31.0553 C   0  0  2  0  0  0  0  0  0  0  0  0
   30.5321    6.3401   30.5204 O   0  0  0  0  0  0  0  0  0  0  0  0
   31.1445    5.0236   32.4917 C   0  0  2  0  0  0  0  0  0  0  0  0
   31.3776    3.6621   33.0112 N   0  0  0  0  0  0  0  0  0  0  0  0
   30.1882    5.6770   33.4868 C   0  0  0  0  0  0  0  0  0  0  0  0
   28.8706    5.0608   33.4517 O   0  0  0  0  0  0  0  0  0  0  0  0
  1  2  1  0
  2  3  1  6
  2  4  1  0
  4  5  1  6
  4  6  1  0
  6  7  1  6
  6  8  1  0
  1  9  1  0
  8  9  1  0
  8 10  1  1
 10 11  1  0
M  END
