7XFA_D9J_A_301
     RDKit          3D

 41 45  0  0  0  0  0  0  0  0999 V2000
  -22.0547   -7.6906    1.8624 F   0  0  0  0  0  0  0  0  0  0  0  0
  -21.2893   -7.3680    0.9023 C   0  0  1  0  0  0  0  0  0  0  0  0
  -21.9739   -6.5042    0.0751 F   0  0  0  0  0  0  0  0  0  0  0  0
  -20.2840   -6.6902    1.4246 F   0  0  0  0  0  0  0  0  0  0  0  0
  -20.8113   -8.5170    0.1748 C   0  0  0  0  0  0  0  0  0  0  0  0
  -21.2612   -8.7748   -1.1411 C   0  0  0  0  0  0  0  0  0  0  0  0
  -20.8183   -9.8819   -1.8616 C   0  0  0  0  0  0  0  0  0  0  0  0
  -19.8754  -10.7397   -1.3042 C   0  0  0  0  0  0  0  0  0  0  0  0
  -19.2761  -12.0685   -2.2401 Cl  0  0  0  0  0  0  0  0  0  0  0  0
  -19.4045  -10.5015   -0.0048 C   0  0  0  0  0  0  0  0  0  0  0  0
  -19.8703   -9.4110    0.7512 C   0  0  0  0  0  0  0  0  0  0  0  0
  -19.3711   -9.2463    1.9969 N   0  0  0  0  0  0  0  0  0  0  0  0
  -20.1226   -9.0585    3.1121 N   0  0  0  0  0  0  0  0  0  0  0  0
  -19.2534   -9.0078    4.1168 C   0  0  0  0  0  0  0  0  0  0  0  0
  -19.6857   -8.7971    5.5617 C   0  0  0  0  0  0  0  0  0  0  0  0
  -17.9879   -9.1313    3.6915 N   0  0  0  0  0  0  0  0  0  0  0  0
  -18.0879   -9.2520    2.3743 C   0  0  0  0  0  0  0  0  0  0  0  0
  -16.9516   -9.4740    1.4140 C   0  0  1  0  0  0  0  0  0  0  0  0
  -15.7588   -8.5455    1.6382 C   0  0  2  0  0  0  0  0  0  0  0  0
  -16.1999   -7.2097    1.3548 O   0  0  0  0  0  0  0  0  0  0  0  0
  -16.5471  -10.8494    1.5961 O   0  0  0  0  0  0  0  0  0  0  0  0
  -15.5900  -11.2149    0.5919 C   0  0  2  0  0  0  0  0  0  0  0  0
  -15.3247  -12.7138    0.7934 C   0  0  0  0  0  0  0  0  0  0  0  0
  -16.5022  -13.4987    0.5749 O   0  0  0  0  0  0  0  0  0  0  0  0
  -14.3168  -10.4080    0.7837 C   0  0  2  0  0  0  0  0  0  0  0  0
  -13.7644  -10.6807    2.0748 O   0  0  0  0  0  0  0  0  0  0  0  0
  -14.6721   -8.9287    0.6581 C   0  0  2  0  0  0  0  0  0  0  0  0
  -13.4881   -8.0811    0.7930 N   0  0  0  0  0  0  0  0  0  0  0  0
  -12.7836   -7.6927    1.8772 C   0  0  0  0  0  0  0  0  0  0  0  0
  -12.9438   -7.5589   -0.3180 N   0  0  0  0  0  0  0  0  0  0  0  0
  -11.9064   -6.8382    0.0846 N   0  0  0  0  0  0  0  0  0  0  0  0
  -11.7792   -6.9131    1.4258 C   0  0  0  0  0  0  0  0  0  0  0  0
  -10.7842   -6.2864    2.1260 C   0  0  0  0  0  0  0  0  0  0  0  0
   -9.5061   -6.1587    1.5434 C   0  0  0  0  0  0  0  0  0  0  0  0
   -8.4665   -5.5635    2.2434 C   0  0  0  0  0  0  0  0  0  0  0  0
   -7.2437   -5.4160    1.6646 F   0  0  0  0  0  0  0  0  0  0  0  0
   -8.6513   -5.1271    3.5373 C   0  0  0  0  0  0  0  0  0  0  0  0
   -7.3040   -4.3987    4.2270 Cl  0  0  0  0  0  0  0  0  0  0  0  0
   -9.9000   -5.2541    4.1497 C   0  0  0  0  0  0  0  0  0  0  0  0
  -10.1101   -4.8375    5.4168 F   0  0  0  0  0  0  0  0  0  0  0  0
  -10.9632   -5.8330    3.4483 C   0  0  0  0  0  0  0  0  0  0  0  0
  2  1  1  1
  2  3  1  0
  2  4  1  0
  2  5  1  0
  5  6  2  0
  6  7  1  0
  7  8  2  0
  8  9  1  0
  8 10  1  0
 10 11  2  0
  5 11  1  0
 11 12  1  0
 12 13  1  0
 13 14  2  0
 14 15  1  0
 14 16  1  0
 16 17  2  0
 12 17  1  0
 18 17  1  1
 18 19  1  0
 19 20  1  6
 18 21  1  0
 21 22  1  0
 22 23  1  1
 23 24  1  0
 22 25  1  0
 25 26  1  1
 25 27  1  0
 19 27  1  0
 27 28  1  1
 28 29  1  0
 28 30  1  0
 30 31  2  0
 29 32  2  0
 31 32  1  0
 32 33  1  0
 33 34  2  0
 34 35  1  0
 35 36  1  0
 35 37  2  0
 37 38  1  0
 37 39  1  0
 39 40  1  0
 39 41  2  0
 33 41  1  0
M  END
