7ZL5_IWE_AAA_303
     RDKit          3D

 23 25  0  0  0  0  0  0  0  0999 V2000
   27.3060   36.1628   52.3402 N   0  0  0  0  0  0  0  0  0  0  0  0
   29.9666   36.2245   56.8601 C   0  0  0  0  0  0  0  0  0  0  0  0
   30.5028   36.7125   55.6536 C   0  0  0  0  0  0  0  0  0  0  0  0
   30.0662   36.5393   54.4132 C   0  0  0  0  0  0  0  0  0  0  0  0
   28.8561   35.7332   54.1701 C   0  0  0  0  0  0  0  0  0  0  0  0
   28.3518   35.4263   52.8778 C   0  0  0  0  0  0  0  0  0  0  0  0
   28.3464   35.2684   55.3795 C   0  0  0  0  0  0  0  0  0  0  0  0
   30.9441   37.5688   52.0038 C   0  0  0  0  0  0  0  0  0  0  0  0
   28.9758   33.6520   58.5121 O   0  0  0  0  0  0  0  0  0  0  0  0
   32.4083   37.5178   51.8539 C   0  0  0  0  0  0  0  0  0  0  0  0
   35.0033   37.1658   51.1737 C   0  0  0  0  0  0  0  0  0  0  0  0
   34.6661   38.0411   52.2528 C   0  0  0  0  0  0  0  0  0  0  0  0
   27.8232   34.7073   50.9551 N   0  0  0  0  0  0  0  0  0  0  0  0
   33.4310   38.1840   52.5498 C   0  0  0  0  0  0  0  0  0  0  0  0
   27.0241   35.6770   51.1661 N   0  0  0  0  0  0  0  0  0  0  0  0
   30.6186   36.4641   58.4160 Cl  0  0  0  0  0  0  0  0  0  0  0  0
   28.6483   34.5255   51.9828 N   0  0  0  0  0  0  0  0  0  0  0  0
   28.8020   35.4548   56.5979 C   0  0  0  0  0  0  0  0  0  0  0  0
   28.0478   34.6972   57.9753 S   0  0  1  0  0  0  0  0  0  0  0  0
   26.5092   34.0404   57.5121 N   0  0  0  0  0  0  0  0  0  0  0  0
   27.8240   35.7410   59.0213 O   0  0  0  0  0  0  0  0  0  0  0  0
   30.5049   37.0545   53.2053 N   0  0  0  0  0  0  0  0  0  0  0  0
   33.3474   36.5466   50.5982 S   0  0  0  0  0  0  0  0  0  0  0  0
  2  3  2  0
  3  4  1  0
  4  5  2  0
  5  6  1  0
  1  6  1  0
  5  7  1  0
  8 10  1  0
 11 12  2  0
 12 14  1  0
 10 14  2  0
  1 15  1  0
 13 15  2  0
  2 16  1  0
  6 17  2  0
 13 17  1  0
  2 18  1  0
  7 18  2  0
  9 19  2  0
 18 19  1  0
 19 20  1  6
 19 21  2  0
  4 22  1  0
  8 22  1  0
 10 23  1  0
 11 23  1  0
M  END
$$$$
