
     RDKit          3D

 13 13  0  0  0  0  0  0  0  0999 V2000
   27.9190   -2.7077  -11.2942 S   0  0  0  0  0  6  0  0  0  0  0  0
   28.0402   -4.0688  -11.7624 O   0  0  0  0  0  0  0  0  0  0  0  0
   27.7491   -2.3817   -9.8970 O   0  0  0  0  0  0  0  0  0  0  0  0
   32.4648    2.7385  -14.4886 O   0  0  0  0  0  0  0  0  0  0  0  0
   30.9477    0.7550  -12.8313 N   0  0  0  0  0  0  0  0  0  0  0  0
   29.1935   -1.6999  -12.0394 C   0  0  0  0  0  0  0  0  0  0  0  0
   26.6519   -2.0407  -12.0407 O   0  0  0  0  0  0  0  0  0  0  0  0
   28.7464   -0.2585  -12.2739 C   0  0  0  0  0  0  0  0  0  0  0  0
   29.8008    0.7973  -11.9197 C   0  0  0  0  0  0  0  0  0  0  0  0
   32.1129    1.5311  -12.3516 C   0  0  0  0  0  0  0  0  0  0  0  0
   32.3001    2.8767  -13.0719 C   0  0  0  0  0  0  0  0  0  0  0  0
   31.7678    1.6066  -15.0286 C   0  0  0  0  0  0  0  0  0  0  0  0
   30.5502    1.1994  -14.1870 C   0  0  0  0  0  0  0  0  0  0  0  0
  1  2  2  0
  1  3  2  0
  1  6  1  0
  1  7  1  0
  6  8  1  0
  5  9  1  0
  8  9  1  0
  5 10  1  0
  4 11  1  0
 10 11  1  0
  4 12  1  0
  5 13  1  0
 12 13  1  0
M  END
