7UQ3_O2U_A_502
     RDKit          3D

 19 19  0  0  0  0  0  0  0  0999 V2000
   -0.7162    0.2055   -1.5661 C   0  0  0  0  0  0  0  0  0  0  0  0
   -0.0841    0.7269   -0.3095 C   0  0  2  0  0  0  0  0  0  0  0  0
    1.4421    0.5358   -0.3427 C   0  0  0  0  0  0  0  0  0  0  0  0
    2.0899    1.1393    0.8653 C   0  0  0  0  0  0  0  0  0  0  0  0
   -0.7745   -0.1007    0.8161 C   0  0  0  0  0  0  0  0  0  0  0  0
   -1.7245   -0.9885    0.0813 C   0  0  0  0  0  0  0  0  0  0  0  0
   -1.6566   -0.8158   -1.3165 N   0  0  0  0  0  0  0  0  0  0  0  0
   -2.4931   -1.3671   -2.2278 O   0  0  0  0  0  0  0  0  0  0  0  0
    2.4796    0.3255    1.9245 O   0  0  0  0  0  0  0  0  0  0  0  0
    2.2582    2.3862    0.9343 O   0  0  0  0  0  0  0  0  0  0  0  0
   -2.5119   -1.7991    0.6366 O   0  0  0  0  0  0  0  0  0  0  0  0
   -0.4757    0.6480   -2.7208 O   0  0  0  0  0  0  0  0  0  0  0  0
   -0.3352    1.8057   -0.2028 H   0  0  0  0  0  0  0  0  0  0  0  0
    1.8598    1.0273   -1.2485 H   0  0  0  0  0  0  0  0  0  0  0  0
    1.6934   -0.5462   -0.4000 H   0  0  0  0  0  0  0  0  0  0  0  0
   -0.0574   -0.7227    1.3935 H   0  0  0  0  0  0  0  0  0  0  0  0
   -1.3346    0.5663    1.5057 H   0  0  0  0  0  0  0  0  0  0  0  0
   -2.0269   -2.1856   -2.5360 H   0  0  0  0  0  0  0  0  0  0  0  0
    2.9076    0.7209    2.7530 H   0  0  0  0  0  0  0  0  0  0  0  0
  1  2  1  0
  2  3  1  0
  3  4  1  0
  2  5  1  0
  5  6  1  0
  6  7  1  0
  1  7  1  0
  7  8  1  0
  4  9  1  0
  4 10  2  0
  6 11  2  0
  1 12  2  0
  2 13  1  1
  3 14  1  0
  3 15  1  0
  5 16  1  0
  5 17  1  0
  8 18  1  0
  9 19  1  0
M  END
