6VS3_R6V_B_1201
     RDKit          3D

 36 41  0  0  0  0  0  0  0  0999 V2000
   54.4379  -22.5410  -10.0663 C   0  0  0  0  0  0  0  0  0  0  0  0
   56.1125  -23.0590  -11.8974 C   0  0  0  0  0  0  0  0  0  0  0  0
   57.3127  -21.4280  -13.1245 C   0  0  0  0  0  0  0  0  0  0  0  0
   57.2681  -17.6726  -13.1688 C   0  0  0  0  0  0  0  0  0  0  0  0
   56.7355  -16.5485  -12.5776 C   0  0  0  0  0  0  0  0  0  0  0  0
   55.8152  -16.6333  -11.5808 C   0  0  0  0  0  0  0  0  0  0  0  0
   56.2025  -14.3799  -10.5659 C   0  0  0  0  0  0  0  0  0  0  0  0
   54.1139  -14.8080  -11.7424 C   0  0  0  0  0  0  0  0  0  0  0  0
   53.9410  -23.8419   -6.5399 C   0  0  0  0  0  0  0  0  0  0  0  0
   52.6388  -23.5562   -7.1034 C   0  0  0  0  0  0  0  0  0  0  0  0
   52.6302  -22.6976   -8.3010 C   0  0  2  0  0  0  0  0  0  0  0  0
   51.3437  -22.3801   -8.9180 C   0  0  1  0  0  0  0  0  0  0  0  0
   50.2604  -21.7531   -8.1106 C   0  0  0  0  0  0  0  0  0  0  0  0
   49.1942  -21.4253   -9.1961 C   0  0  0  0  0  0  0  0  0  0  0  0
   49.9411  -21.3826  -10.4951 C   0  0  0  0  0  0  0  0  0  0  0  0
   51.4028  -21.4291  -10.1092 C   0  0  0  0  0  0  0  0  0  0  0  0
   54.4669  -24.6354  -10.7138 C   0  0  0  0  0  0  0  0  0  0  0  0
   55.0619  -23.4131  -10.9491 C   0  0  0  0  0  0  0  0  0  0  0  0
   56.8902  -18.9657  -12.7748 C   0  0  0  0  0  0  0  0  0  0  0  0
   55.2233  -15.4349  -10.9270 C   0  0  1  0  0  0  0  0  0  0  0  0
   55.8225  -13.0063  -11.1110 C   0  0  0  0  0  0  0  0  0  0  0  0
   54.5763  -13.9397  -12.8631 C   0  0  0  0  0  0  0  0  0  0  0  0
   55.4305  -17.9091  -11.1791 C   0  0  0  0  0  0  0  0  0  0  0  0
   55.9677  -19.0340  -11.7753 C   0  0  0  0  0  0  0  0  0  0  0  0
   57.8617  -23.7366  -13.3279 C   0  0  0  0  0  0  0  0  0  0  0  0
   56.8701  -24.0701  -12.4329 C   0  0  0  0  0  0  0  0  0  0  0  0
   56.9125  -25.4507  -12.3078 C   0  0  0  0  0  0  0  0  0  0  0  0
   57.9133  -25.9147  -13.1174 C   0  0  0  0  0  0  0  0  0  0  0  0
   55.0085  -24.0737   -6.1007 N   0  0  0  0  0  0  0  0  0  0  0  0
   53.5230  -23.2132   -9.3478 N   0  0  0  0  0  0  0  0  0  0  0  0
   53.5464  -24.4905   -9.7484 N   0  0  0  0  0  0  0  0  0  0  0  0
   56.3344  -21.7964  -12.2369 N   0  0  0  0  0  0  0  0  0  0  0  0
   57.4818  -20.0654  -13.4297 N   0  0  0  0  0  0  0  0  0  0  0  0
   55.7085  -13.1075  -12.5494 N   0  0  0  0  0  0  0  0  0  0  0  0
   58.0272  -22.4415  -13.6225 N   0  0  0  0  0  0  0  0  0  0  0  0
   58.4642  -24.8598  -13.7165 N   0  0  0  0  0  0  0  0  0  0  0  0
  4  5  2  0
  5  6  1  0
 10  9  1  6
 11 10  1  0
 12 11  1  1
 12 13  1  0
 13 14  1  6
 15 14  1  1
 16 15  1  1
 12 16  1  0
 17 18  1  0
  1 18  2  0
  2 18  1  0
  4 19  1  0
  8 20  1  0
 20  6  1  6
  7 20  1  0
  7 21  1  6
  8 22  1  6
  6 23  2  0
 23 24  1  0
 19 24  2  0
  2 26  2  0
 25 26  1  0
 26 27  1  0
 27 28  2  0
  9 29  3  0
 11 30  1  6
  1 30  1  0
 30 31  1  0
 17 31  2  0
  2 32  1  0
  3 32  2  0
 19 33  1  0
  3 33  1  0
 22 34  1  1
 21 34  1  6
  3 35  1  0
 25 35  2  0
 28 36  1  0
 25 36  1  0
M  END
$$$$
