7TXK_LW8_A_601
     RDKit          3D

 31 31  0  0  0  0  0  0  0  0999 V2000
    0.9186    2.2692    1.6381 O   0  0  0  0  0  0  0  0  0  0  0  0
    0.4262    1.4613    0.6170 C   0  0  0  0  0  0  0  0  0  0  0  0
   -0.1606    1.9931   -0.3625 O   0  0  0  0  0  0  0  0  0  0  0  0
    0.5991   -0.0444    0.7085 C   0  0  1  0  0  0  0  0  0  0  0  0
   -0.6878   -0.7899    0.9922 N   0  0  0  0  0  4  0  0  0  0  0  0
   -1.7608   -0.5249   -0.0002 C   0  0  0  0  0  0  0  0  0  0  0  0
   -1.1996   -0.3789    2.3278 C   0  0  0  0  0  0  0  0  0  0  0  0
   -0.4476   -2.2545    1.0497 C   0  0  0  0  0  0  0  0  0  0  0  0
    1.5070   -0.5916   -0.4423 C   0  0  0  0  0  0  0  0  0  0  0  0
    0.9751   -0.4805   -1.8446 C   0  0  0  0  0  0  0  0  0  0  0  0
    0.4655   -1.5089   -2.5517 N   0  0  0  0  0  0  0  0  0  0  0  0
    0.2069   -0.9968   -3.7692 C   0  0  0  0  0  0  0  0  0  0  0  0
   -0.4198   -1.8679   -5.0033 S   0  0  0  0  0  0  0  0  0  0  0  0
    0.5481    0.3015   -3.8707 N   0  0  0  0  0  0  0  0  0  0  0  0
    1.0451    0.6311   -2.6646 C   0  0  0  0  0  0  0  0  0  0  0  0
    0.8119    3.2759    1.6018 H   0  0  0  0  0  0  0  0  0  0  0  0
    1.2536   -0.1880    1.6008 H   0  0  0  0  0  0  0  0  0  0  0  0
   -2.0942    0.5337    0.0234 H   0  0  0  0  0  0  0  0  0  0  0  0
   -2.6628   -1.1407    0.2171 H   0  0  0  0  0  0  0  0  0  0  0  0
   -1.4498   -0.7752   -1.0284 H   0  0  0  0  0  0  0  0  0  0  0  0
   -0.4565   -0.5931    3.1285 H   0  0  0  0  0  0  0  0  0  0  0  0
   -1.4325    0.7083    2.3585 H   0  0  0  0  0  0  0  0  0  0  0  0
   -2.1381   -0.9191    2.5887 H   0  0  0  0  0  0  0  0  0  0  0  0
   -0.2371   -2.6725    0.0440 H   0  0  0  0  0  0  0  0  0  0  0  0
    0.4075   -2.4946    1.7205 H   0  0  0  0  0  0  0  0  0  0  0  0
   -1.3404   -2.7996    1.4318 H   0  0  0  0  0  0  0  0  0  0  0  0
    1.7926   -1.6454   -0.2448 H   0  0  0  0  0  0  0  0  0  0  0  0
    2.4695   -0.0345   -0.4113 H   0  0  0  0  0  0  0  0  0  0  0  0
    0.3257   -2.4944   -2.2371 H   0  0  0  0  0  0  0  0  0  0  0  0
    0.4707    0.9181   -4.7100 H   0  0  0  0  0  0  0  0  0  0  0  0
    1.4574    1.5997   -2.4145 H   0  0  0  0  0  0  0  0  0  0  0  0
  1  2  1  0
  2  3  2  0
  2  4  1  0
  4  5  1  0
  5  6  1  0
  5  7  1  0
  5  8  1  0
  4  9  1  0
  9 10  1  0
 10 11  1  0
 11 12  1  0
 12 13  2  0
 12 14  1  0
 10 15  2  0
 14 15  1  0
  1 16  1  0
  4 17  1  1
  6 18  1  0
  6 19  1  0
  6 20  1  0
  7 21  1  0
  7 22  1  0
  7 23  1  0
  8 24  1  0
  8 25  1  0
  8 26  1  0
  9 27  1  0
  9 28  1  0
 11 29  1  0
 14 30  1  0
 15 31  1  0
M  CHG  1   5   1
M  END
