7P2W_4QR_A_301
     RDKit          3D

 49 52  0  0  0  0  0  0  0  0999 V2000
  -26.6615    6.9633    0.3569 N   0  0  0  0  0  0  0  0  0  0  0  0
  -22.4611    4.3653    0.1005 N   0  0  0  0  0  4  0  0  0  0  0  0
  -28.8145    7.8866   -0.3881 C   0  0  0  0  0  0  0  0  0  0  0  0
  -28.0311    7.0368    0.3755 C   0  0  0  0  0  0  0  0  0  0  0  0
  -28.6616    6.2007    1.3122 C   0  0  0  0  0  0  0  0  0  0  0  0
  -26.2628    6.0944    1.2347 C   0  0  0  0  0  0  0  0  0  0  0  0
  -32.3134    7.0395    0.8225 C   0  0  0  0  0  0  0  0  0  0  0  0
  -27.5281    7.8420   -3.4356 C   0  0  0  0  0  0  0  0  0  0  0  0
  -25.5279    6.5830   -4.8770 C   0  0  0  0  0  0  0  0  0  0  0  0
  -26.7509    8.5597   -4.3380 C   0  0  0  0  0  0  0  0  0  0  0  0
  -23.9782    6.2382    0.5152 C   0  0  0  0  0  0  0  0  0  0  0  0
  -22.6567    3.8821   -2.0249 C   0  0  0  0  0  0  0  0  0  0  0  0
  -22.0068    3.5545   -0.8923 C   0  0  0  0  0  0  0  0  0  0  0  0
  -20.9604    2.5194   -0.6822 C   0  0  0  0  0  0  0  0  0  0  0  0
  -30.0409    6.1813    1.4485 C   0  0  0  0  0  0  0  0  0  0  0  0
  -30.8146    7.0245    0.6492 C   0  0  0  0  0  0  0  0  0  0  0  0
  -30.1936    7.8806   -0.2483 C   0  0  0  0  0  0  0  0  0  0  0  0
  -27.4789    5.2710    2.1819 S   0  0  0  0  0  0  0  0  0  0  0  0
  -32.9380    5.9704    0.5374 O   0  0  0  0  0  0  0  0  0  0  0  0
  -32.8454    8.0945    1.2955 O   0  0  0  0  0  0  0  0  0  0  0  0
  -28.2701    8.6751   -1.3517 O   0  0  0  0  0  0  0  0  0  0  0  0
  -28.6385    8.5225   -2.7060 C   0  0  0  0  0  0  0  0  0  0  0  0
  -27.3394    6.4748   -3.3006 C   0  0  0  0  0  0  0  0  0  0  0  0
  -26.3208    5.8535   -4.0092 C   0  0  0  0  0  0  0  0  0  0  0  0
  -25.7239    7.9422   -5.0465 C   0  0  0  0  0  0  0  0  0  0  0  0
  -24.9015    8.7284   -6.0487 C   0  0  0  0  0  0  0  0  0  0  0  0
  -24.1994    8.0897   -6.8514 O   0  0  0  0  0  0  0  0  0  0  0  0
  -25.0449    9.9842   -6.0830 O   0  0  0  0  0  0  0  0  0  0  0  0
  -24.9238    5.8174    1.3711 N   0  0  0  0  0  0  0  0  0  0  0  0
  -23.4093    5.2319   -0.3946 C   0  0  0  0  0  0  0  0  0  0  0  0
  -23.5339    4.9278   -1.7457 C   0  0  0  0  0  0  0  0  0  0  0  0
  -23.5908    7.4055    0.4847 O   0  0  0  0  0  0  0  0  0  0  0  0
  -24.5493    5.6584   -2.9104 Cl  0  0  0  0  0  0  0  0  0  0  0  0
  -22.3879    3.1659   -3.5485 Cl  0  0  0  0  0  0  0  0  0  0  0  0
  -22.1565    4.3366    1.0363 H   0  0  0  0  0  0  0  0  0  0  0  0
  -24.7801    6.1068   -5.4052 H   0  0  0  0  0  0  0  0  0  0  0  0
  -26.9380    9.5640   -4.4846 H   0  0  0  0  0  0  0  0  0  0  0  0
  -20.7707    2.0116   -1.6047 H   0  0  0  0  0  0  0  0  0  0  0  0
  -20.0603    2.9863   -0.3404 H   0  0  0  0  0  0  0  0  0  0  0  0
  -21.2971    1.8153    0.0498 H   0  0  0  0  0  0  0  0  0  0  0  0
  -30.4898    5.5516    2.1318 H   0  0  0  0  0  0  0  0  0  0  0  0
  -30.7660    8.5217   -0.8197 H   0  0  0  0  0  0  0  0  0  0  0  0
  -32.4729    5.2341    0.1915 H   0  0  0  0  0  0  0  0  0  0  0  0
  -28.8172    9.4841   -3.1400 H   0  0  0  0  0  0  0  0  0  0  0  0
  -29.5307    7.9359   -2.7750 H   0  0  0  0  0  0  0  0  0  0  0  0
  -27.9513    5.9241   -2.6784 H   0  0  0  0  0  0  0  0  0  0  0  0
  -26.1540    4.8424   -3.8882 H   0  0  0  0  0  0  0  0  0  0  0  0
  -25.5881   10.4111   -5.4501 H   0  0  0  0  0  0  0  0  0  0  0  0
  -24.6402    5.2772    2.1438 H   0  0  0  0  0  0  0  0  0  0  0  0
  3  4  4  0
  1  4  4  0
  4  5  4  0
  1  6  4  0
  8 10  4  0
 12 13  4  0
  2 13  4  0
 13 14  1  0
  5 15  4  0
 15 16  4  0
  7 16  1  0
  3 17  4  0
 16 17  4  0
  6 18  4  0
  5 18  4  0
  7 19  1  0
  7 20  2  0
  3 21  1  0
  8 22  1  0
 21 22  1  0
  8 23  4  0
  9 24  4  0
 23 24  4  0
  9 25  4  0
 10 25  4  0
 25 26  1  0
 26 27  2  0
 26 28  1  0
  6 29  1  0
 11 29  1  0
 11 30  1  0
  2 30  4  0
 12 31  4  0
 30 31  4  0
 11 32  2  0
 31 33  1  0
 12 34  1  0
  2 35  1  0
  9 36  1  0
 10 37  1  0
 14 38  1  0
 14 39  1  0
 14 40  1  0
 15 41  1  0
 17 42  1  0
 19 43  1  0
 22 44  1  0
 22 45  1  0
 23 46  1  0
 24 47  1  0
 28 48  1  0
 29 49  1  0
M  CHG  1   2   1
M  END
