6Z4N_Q7B_BBB_402
     RDKit          3D

 20 22  0  0  0  0  0  0  0  0999 V2000
   18.5880   11.0091   46.9682 C   0  0  0  0  0  0  0  0  0  0  0  0
   18.3985    9.8701   46.2034 C   0  0  0  0  0  0  0  0  0  0  0  0
   17.6989    8.8047   46.7035 C   0  0  0  0  0  0  0  0  0  0  0  0
   17.4899    7.6654   45.9025 C   0  0  0  0  0  0  0  0  0  0  0  0
   17.1415    8.9032   47.9602 C   0  0  0  0  0  0  0  0  0  0  0  0
   17.3571   10.0344   48.7634 C   0  0  0  0  0  0  0  0  0  0  0  0
   18.0764   11.1269   48.2713 C   0  0  0  0  0  0  0  0  0  0  0  0
   18.2929   12.3596   49.0344 C   0  0  0  0  0  0  0  0  0  0  0  0
   18.2117   12.1746   50.5519 C   0  0  1  0  0  0  0  0  0  0  0  0
   19.3771   11.3831   51.1420 C   0  0  0  0  0  0  0  0  0  0  0  0
   19.2760   10.9675   52.3152 O   0  0  0  0  0  0  0  0  0  0  0  0
   20.4190   11.2743   50.4338 O   0  0  0  0  0  0  0  0  0  0  0  0
   17.7684   13.3664   51.2959 C   0  0  0  0  0  0  0  0  0  0  0  0
   16.8705   12.1309   51.2666 C   0  0  1  0  0  0  0  0  0  0  0  0
   15.6173   12.0555   50.5289 C   0  0  0  0  0  0  0  0  0  0  0  0
   15.1139   10.7932   50.1707 C   0  0  0  0  0  0  0  0  0  0  0  0
   13.9607   10.6377   49.4796 C   0  0  0  0  0  0  0  0  0  0  0  0
   13.2069   11.7221   49.1353 C   0  0  0  0  0  0  0  0  0  0  0  0
   13.6850   12.9694   49.4847 C   0  0  0  0  0  0  0  0  0  0  0  0
   14.8356   13.1520   50.1768 C   0  0  0  0  0  0  0  0  0  0  0  0
  1  2  2  0
  2  3  1  0
  3  4  1  0
  3  5  2  0
  5  6  1  0
  6  7  2  0
  1  7  1  0
  7  8  1  0
  9  8  1  6
  9 10  1  0
 10 11  1  0
 10 12  2  0
  9 13  1  0
 13 14  1  0
  9 14  1  0
 14 15  1  6
 15 16  2  0
 16 17  1  0
 17 18  2  0
 18 19  1  0
 19 20  2  0
 15 20  1  0
M  END
