
     RDKit          3D

 23 22  0  0  0  0  0  0  0  0999 V2000
    9.1997   12.9556   23.9755 N   0  0  0  0  0  0  0  0  0  0  0  0
   10.6082   16.9403   24.7583 C   0  0  0  0  0  0  0  0  0  0  0  0
   11.0103   12.1270   21.9107 O   0  0  0  0  0  0  0  0  0  0  0  0
    9.2931   13.2431   25.3203 C   0  0  0  0  0  0  0  0  0  0  0  0
    5.4644   16.4093   28.8379 O   0  0  0  0  0  0  0  0  0  0  0  0
    9.2641   11.5663   23.5117 C   0  0  1  0  0  0  0  0  0  0  0  0
    8.0831   11.2039   22.5606 C   0  0  0  0  0  0  0  0  0  0  0  0
    7.9264   12.2097   21.4043 C   0  0  0  0  0  0  0  0  0  0  0  0
    8.2829    9.7975   21.9613 C   0  0  0  0  0  0  0  0  0  0  0  0
   10.6576   11.4181   22.8541 C   0  0  0  0  0  0  0  0  0  0  0  0
   12.8769   10.5863   23.4661 C   0  0  0  0  0  0  0  0  0  0  0  0
    6.5817   15.6874   28.3444 N   0  0  0  0  0  0  0  0  0  0  0  0
    6.4902   15.3529   27.0071 C   0  0  0  0  0  0  0  0  0  0  0  0
    5.7878   15.9984   26.2297 O   0  0  0  0  0  0  0  0  0  0  0  0
    7.3189   14.1178   26.5982 C   0  0  1  0  0  0  0  0  0  0  0  0
    6.5308   13.1209   25.9581 O   0  0  0  0  0  0  0  0  0  0  0  0
    8.5398   14.5023   25.7398 C   0  0  1  0  0  0  0  0  0  0  0  0
    9.5358   15.4370   26.4610 C   0  0  0  0  0  0  0  0  0  0  0  0
   10.8356   15.7497   25.6946 C   0  0  0  0  0  0  0  0  0  0  0  0
   12.0063   16.0471   26.6321 C   0  0  0  0  0  0  0  0  0  0  0  0
    9.9429   12.5638   26.1093 O   0  0  0  0  0  0  0  0  0  0  0  0
    6.7680   11.1845   23.3705 C   0  0  0  0  0  0  0  0  0  0  0  0
   11.4475   10.4202   23.3860 N   0  0  0  0  0  0  0  0  0  0  0  0
  1  4  1  0
  6  1  1  6
  6  7  1  0
  7  8  1  0
  7  9  1  0
  3 10  2  0
  6 10  1  0
  5 12  1  0
 12 13  1  0
 13 14  2  0
 13 15  1  0
 15 16  1  6
  4 17  1  0
 15 17  1  0
 17 18  1  1
  2 19  1  0
 18 19  1  0
 19 20  1  0
  4 21  2  0
  7 22  1  0
 10 23  1  0
 11 23  1  0
M  END
