1XM6_5RM_A_1003
     RDKit          3D

 38 39  0  0  0  0  0  0  0  0999 V2000
   51.2705    1.7786   -8.8209 O   0  0  0  0  0  0  0  0  0  0  0  0
   50.1015    1.4197   -8.9511 C   0  0  0  0  0  0  0  0  0  0  0  0
   49.0974    2.3930   -9.2665 O   0  0  0  0  0  0  0  0  0  0  0  0
   49.4909    0.3718   -8.3732 N   0  0  0  0  0  0  0  0  0  0  0  0
   48.0469    0.5100   -8.3486 C   0  0  0  0  0  0  0  0  0  0  0  0
   47.8056    1.8148   -9.1241 C   0  0  1  0  0  0  0  0  0  0  0  0
   46.9772    2.8363   -8.3359 C   0  0  0  0  0  0  0  0  0  0  0  0
   47.1601    1.5785  -10.4735 C   0  0  0  0  0  0  0  0  0  0  0  0
   45.7710    1.4459  -10.5813 C   0  0  0  0  0  0  0  0  0  0  0  0
   45.1671    1.2431  -11.8206 C   0  0  0  0  0  0  0  0  0  0  0  0
   45.9490    1.2089  -12.9785 C   0  0  0  0  0  0  0  0  0  0  0  0
   45.4020    1.0179  -14.2195 O   0  0  0  0  0  0  0  0  0  0  0  0
   46.0110    1.4199  -15.4535 C   0  0  0  0  0  0  0  0  0  0  0  0
   47.3420    1.3398  -12.8899 C   0  0  0  0  0  0  0  0  0  0  0  0
   47.9278    1.5299  -11.6379 C   0  0  0  0  0  0  0  0  0  0  0  0
   48.0973    1.2657  -14.0569 O   0  0  0  0  0  0  0  0  0  0  0  0
   47.6992    1.8483  -15.2985 C   0  0  0  0  0  0  0  0  0  0  0  0
   46.5747    1.0105  -15.9044 C   0  0  0  0  0  0  0  0  0  0  0  0
   45.4323    0.9449  -14.9190 C   0  0  0  0  0  0  0  0  0  0  0  0
   49.9712   -0.4053   -8.0062 H   0  0  0  0  0  0  0  0  0  0  0  0
   47.5739   -0.3179   -8.8342 H   0  0  0  0  0  0  0  0  0  0  0  0
   47.6441    0.5302   -7.3576 H   0  0  0  0  0  0  0  0  0  0  0  0
   47.4320    3.0044   -7.3821 H   0  0  0  0  0  0  0  0  0  0  0  0
   46.9362    3.7574   -8.8788 H   0  0  0  0  0  0  0  0  0  0  0  0
   45.9854    2.4598   -8.1967 H   0  0  0  0  0  0  0  0  0  0  0  0
   45.1867    1.4990   -9.7323 H   0  0  0  0  0  0  0  0  0  0  0  0
   44.1446    1.1184  -11.8834 H   0  0  0  0  0  0  0  0  0  0  0  0
   45.3735    1.1518  -16.2700 H   0  0  0  0  0  0  0  0  0  0  0  0
   46.1589    2.4797  -15.4496 H   0  0  0  0  0  0  0  0  0  0  0  0
   46.9552    0.9285  -15.5620 H   0  0  0  0  0  0  0  0  0  0  0  0
   48.9521    1.6370  -11.5714 H   0  0  0  0  0  0  0  0  0  0  0  0
   47.3524    2.8466  -15.1313 H   0  0  0  0  0  0  0  0  0  0  0  0
   48.5325    1.8731  -15.9693 H   0  0  0  0  0  0  0  0  0  0  0  0
   46.2394    1.4628  -16.8142 H   0  0  0  0  0  0  0  0  0  0  0  0
   46.9298    0.0235  -16.1159 H   0  0  0  0  0  0  0  0  0  0  0  0
   45.0823    1.9347  -14.7122 H   0  0  0  0  0  0  0  0  0  0  0  0
   44.6353    0.3645  -15.3349 H   0  0  0  0  0  0  0  0  0  0  0  0
   45.7696    0.4891  -14.0116 H   0  0  0  0  0  0  0  0  0  0  0  0
  1  2  2  0
  2  3  1  0
  2  4  1  0
  4  5  1  0
  3  6  1  0
  5  6  1  0
  6  7  1  6
  6  8  1  0
  8  9  2  0
  9 10  1  0
 10 11  2  0
 11 12  1  0
 12 13  1  0
 11 14  1  0
  8 15  1  0
 14 15  2  0
 14 16  1  0
 16 17  1  0
 17 18  1  0
 18 19  1  0
  4 20  1  0
  5 21  1  0
  5 22  1  0
  7 23  1  0
  7 24  1  0
  7 25  1  0
  9 26  1  0
 10 27  1  0
 13 28  1  0
 13 29  1  0
 13 30  1  0
 15 31  1  0
 17 32  1  0
 17 33  1  0
 18 34  1  0
 18 35  1  0
 19 36  1  0
 19 37  1  0
 19 38  1  0
M  END
