7FRX_O88_E_605
     RDKit          3D

 47 49  0  0  0  0  0  0  0  0999 V2000
   88.7459  -43.2748   67.7327 C   0  0  0  0  0  0  0  0  0  0  0  0
   80.2659  -41.6952   62.4624 O   0  0  0  0  0  0  0  0  0  0  0  0
   89.8378  -42.4920   67.9612 C   0  0  0  0  0  0  0  0  0  0  0  0
   82.5959  -42.5361   66.3446 C   0  0  0  0  0  0  0  0  0  0  0  0
   81.8270  -42.8245   65.2294 C   0  0  0  0  0  0  0  0  0  0  0  0
   81.9359  -42.7925   60.1261 C   0  0  0  0  0  0  0  0  0  0  0  0
   82.8268  -42.8221   59.0714 C   0  0  0  0  0  0  0  0  0  0  0  0
   82.4359  -43.0513   57.7777 O   0  0  0  0  0  0  0  0  0  0  0  0
   83.7768  -42.4714   61.6552 C   0  0  0  0  0  0  0  0  0  0  0  0
   84.2319  -42.6615   59.2814 C   0  0  0  0  0  0  0  0  0  0  0  0
   84.7174  -42.4669   60.6070 C   0  0  0  0  0  0  0  0  0  0  0  0
   82.1531  -42.3111   63.9992 C   0  0  0  0  0  0  0  0  0  0  0  0
   82.3822  -42.6407   61.4452 C   0  0  0  0  0  0  0  0  0  0  0  0
   83.2792  -41.4941   63.9079 C   0  0  0  0  0  0  0  0  0  0  0  0
   84.0566  -41.2004   65.0103 C   0  0  0  0  0  0  0  0  0  0  0  0
   85.1446  -42.7139   58.2853 O   0  0  0  0  0  0  0  0  0  0  0  0
   83.7011  -41.7390   66.2458 C   0  0  0  0  0  0  0  0  0  0  0  0
   87.3463  -41.4011   68.3650 C   0  0  0  0  0  0  0  0  0  0  0  0
   86.2420  -44.8885   68.4716 O   0  0  0  0  0  0  0  0  0  0  0  0
   88.4558  -40.5788   68.5633 C   0  0  0  0  0  0  0  0  0  0  0  0
   87.4705  -42.7657   67.9364 C   0  0  0  0  0  0  0  0  0  0  0  0
   84.4588  -41.5999   67.5472 C   0  0  0  0  0  0  0  0  0  0  0  0
   85.8605  -43.8303   66.2766 O   0  0  0  0  0  0  0  0  0  0  0  0
   86.1372  -43.7333   67.6610 S   0  0  1  0  0  6  0  0  0  0  0  0
   91.0640  -43.0534   67.9412 O   0  0  0  0  0  0  0  0  0  0  0  0
   89.7317  -41.1320   68.3615 C   0  0  0  0  0  0  0  0  0  0  0  0
   90.7849  -40.3172   68.5908 O   0  0  0  0  0  0  0  0  0  0  0  0
   84.8945  -42.8122   68.2278 N   0  0  0  0  0  0  0  0  0  0  0  0
   81.2406  -42.7180   62.6903 S   0  0  2  0  0  6  0  0  0  0  0  0
   80.7953  -44.0389   62.8466 O   0  0  0  0  0  0  0  0  0  0  0  0
   88.8673  -44.2468   67.4080 H   0  0  0  0  0  0  0  0  0  0  0  0
   82.3307  -42.9281   67.2616 H   0  0  0  0  0  0  0  0  0  0  0  0
   80.9989  -43.4329   65.3246 H   0  0  0  0  0  0  0  0  0  0  0  0
   80.9250  -42.8837   59.9394 H   0  0  0  0  0  0  0  0  0  0  0  0
   81.5281  -43.1649   57.5757 H   0  0  0  0  0  0  0  0  0  0  0  0
   84.1167  -42.3459   62.6215 H   0  0  0  0  0  0  0  0  0  0  0  0
   85.7230  -42.3275   60.7924 H   0  0  0  0  0  0  0  0  0  0  0  0
   83.5386  -41.0979   62.9910 H   0  0  0  0  0  0  0  0  0  0  0  0
   84.8862  -40.5931   64.9212 H   0  0  0  0  0  0  0  0  0  0  0  0
   84.8651  -42.8407   57.4000 H   0  0  0  0  0  0  0  0  0  0  0  0
   86.4039  -41.0152   68.5321 H   0  0  0  0  0  0  0  0  0  0  0  0
   88.3429  -39.5938   68.8497 H   0  0  0  0  0  0  0  0  0  0  0  0
   83.8270  -41.0658   68.2258 H   0  0  0  0  0  0  0  0  0  0  0  0
   85.3698  -41.1116   67.2704 H   0  0  0  0  0  0  0  0  0  0  0  0
   91.1655  -43.9480   67.6818 H   0  0  0  0  0  0  0  0  0  0  0  0
   90.6418  -39.4291   68.8529 H   0  0  0  0  0  0  0  0  0  0  0  0
   85.1556  -42.5308   69.1728 H   0  0  0  0  0  0  0  0  0  0  0  0
  1  3  4  0
  4  5  4  0
  6  7  4  0
  7  8  1  0
  7 10  4  0
  9 11  4  0
 10 11  4  0
  5 12  4  0
  9 13  4  0
  6 13  4  0
 12 14  4  0
 14 15  4  0
 10 16  1  0
 15 17  4  0
  4 17  4  0
 18 20  4  0
 18 21  4  0
  1 21  4  0
 17 22  1  0
 21 24  1  0
 19 24  2  0
 23 24  2  0
  3 25  1  0
 20 26  4  0
  3 26  4  0
 26 27  1  0
 24 28  1  1
 22 28  1  0
 29 12  1  1
 13 29  1  0
  2 29  2  0
 29 30  2  0
  1 31  1  0
  4 32  1  0
  5 33  1  0
  6 34  1  0
  8 35  1  0
  9 36  1  0
 11 37  1  0
 14 38  1  0
 15 39  1  0
 16 40  1  0
 18 41  1  0
 20 42  1  0
 22 43  1  0
 22 44  1  0
 25 45  1  0
 27 46  1  0
 28 47  1  0
M  END
