1XOZ_CIA_A_501
     RDKit          3D

 29 34  0  0  0  0  0  0  0  0999 V2000
   31.8246   42.3581   41.6291 C   0  0  0  0  0  0  0  0  0  0  0  0
   32.8107   43.3144   41.7983 C   0  0  0  0  0  0  0  0  0  0  0  0
   34.1158   42.8655   41.9601 C   0  0  0  0  0  0  0  0  0  0  0  0
   34.4158   41.5176   41.9522 C   0  0  0  0  0  0  0  0  0  0  0  0
   35.5965   40.8024   42.0874 C   0  0  0  0  0  0  0  0  0  0  0  0
   35.3436   39.4438   42.0030 C   0  0  0  0  0  0  0  0  0  0  0  0
   34.0137   39.3475   41.8186 N   0  0  0  0  0  0  0  0  0  0  0  0
   33.4404   40.5628   41.7845 C   0  0  0  0  0  0  0  0  0  0  0  0
   32.1417   41.0171   41.6238 C   0  0  0  0  0  0  0  0  0  0  0  0
   36.4241   38.4344   42.1189 C   0  0  2  0  0  0  0  0  0  0  0  0
   37.6860   39.1132   42.2663 N   0  0  0  0  0  0  0  0  0  0  0  0
   38.8883   38.7569   41.6348 C   0  0  0  0  0  0  0  0  0  0  0  0
   38.8028   38.4001   40.4103 O   0  0  0  0  0  0  0  0  0  0  0  0
   40.1516   38.8072   42.3793 C   0  0  0  0  0  0  0  0  0  0  0  0
   40.1563   39.8349   43.3847 N   0  0  0  0  0  0  0  0  0  0  0  0
   39.0405   40.7069   43.5121 C   0  0  0  0  0  0  0  0  0  0  0  0
   39.2076   41.8768   43.9430 O   0  0  0  0  0  0  0  0  0  0  0  0
   37.6798   40.2906   43.1555 C   0  0  1  0  0  0  0  0  0  0  0  0
   36.9633   41.3576   42.3058 C   0  0  0  0  0  0  0  0  0  0  0  0
   41.2975   39.9781   44.2641 C   0  0  0  0  0  0  0  0  0  0  0  0
   36.3947   37.3633   41.1327 C   0  0  0  0  0  0  0  0  0  0  0  0
   36.3316   36.0510   41.5993 C   0  0  0  0  0  0  0  0  0  0  0  0
   36.3123   34.9971   40.7093 C   0  0  0  0  0  0  0  0  0  0  0  0
   36.3526   35.1580   39.3413 C   0  0  0  0  0  0  0  0  0  0  0  0
   36.3460   34.3036   38.2475 O   0  0  0  0  0  0  0  0  0  0  0  0
   35.9127   35.0820   37.1221 C   0  0  0  0  0  0  0  0  0  0  0  0
   36.4459   36.3591   37.4877 O   0  0  0  0  0  0  0  0  0  0  0  0
   36.4155   36.4630   38.8769 C   0  0  0  0  0  0  0  0  0  0  0  0
   36.4349   37.5138   39.7664 C   0  0  0  0  0  0  0  0  0  0  0  0
  1  2  2  0
  2  3  1  0
  3  4  2  0
  4  5  1  0
  5  6  2  0
  6  7  1  0
  4  8  1  0
  7  8  1  0
  1  9  1  0
  8  9  2  0
  6 10  1  0
 10 11  1  0
 11 12  1  0
 12 13  2  0
 12 14  1  0
 14 15  1  0
 15 16  1  0
 16 17  2  0
 11 18  1  0
 16 18  1  0
  5 19  1  0
 18 19  1  6
 15 20  1  0
 10 21  1  6
 21 22  2  0
 22 23  1  0
 23 24  2  0
 24 25  1  0
 25 26  1  0
 26 27  1  0
 24 28  1  0
 27 28  1  0
 21 29  1  0
 28 29  2  0
M  END
$$$$
