1XOZ_CIA_A_501
     RDKit          3D

 29 34  0  0  0  0  0  0  0  0999 V2000
   50.2703   33.2969    9.0348 C   0  0  0  0  0  0  0  0  0  0  0  0
   50.3723   32.2787    9.9668 C   0  0  0  0  0  0  0  0  0  0  0  0
   49.6377   32.4090   11.1391 C   0  0  0  0  0  0  0  0  0  0  0  0
   48.8376   33.5118   11.3643 C   0  0  0  0  0  0  0  0  0  0  0  0
   48.0164   33.8960   12.4139 C   0  0  0  0  0  0  0  0  0  0  0  0
   47.4252   35.1165   12.1349 C   0  0  0  0  0  0  0  0  0  0  0  0
   47.8933   35.4613   10.9208 N   0  0  0  0  0  0  0  0  0  0  0  0
   48.7323   34.5265   10.4421 C   0  0  0  0  0  0  0  0  0  0  0  0
   49.4671   34.3903    9.2758 C   0  0  0  0  0  0  0  0  0  0  0  0
   46.4973   35.7761   13.0855 C   0  0  2  0  0  0  0  0  0  0  0  0
   46.3155   34.9227   14.2317 N   0  0  0  0  0  0  0  0  0  0  0  0
   45.0975   34.6730   14.8840 C   0  0  0  0  0  0  0  0  0  0  0  0
   44.0755   34.5062   14.1346 O   0  0  0  0  0  0  0  0  0  0  0  0
   45.0480   34.6147   16.3493 C   0  0  0  0  0  0  0  0  0  0  0  0
   46.2723   34.1241   16.9214 N   0  0  0  0  0  0  0  0  0  0  0  0
   47.3287   33.6935   16.0726 C   0  0  0  0  0  0  0  0  0  0  0  0
   48.1235   32.8020   16.4672 O   0  0  0  0  0  0  0  0  0  0  0  0
   47.5324   34.2561   14.7332 C   0  0  1  0  0  0  0  0  0  0  0  0
   47.7757   33.1536   13.6848 C   0  0  0  0  0  0  0  0  0  0  0  0
   46.4252   34.0704   18.3601 C   0  0  0  0  0  0  0  0  0  0  0  0
   45.2782   36.3190   12.5027 C   0  0  0  0  0  0  0  0  0  0  0  0
   44.6371   37.3540   13.1820 C   0  0  0  0  0  0  0  0  0  0  0  0
   43.4728   37.8981   12.6806 C   0  0  0  0  0  0  0  0  0  0  0  0
   42.8782   37.4736   11.5121 C   0  0  0  0  0  0  0  0  0  0  0  0
   41.7432   37.8304   10.7974 O   0  0  0  0  0  0  0  0  0  0  0  0
   41.9437   37.3692    9.4530 C   0  0  0  0  0  0  0  0  0  0  0  0
   42.7323   36.2024    9.7094 O   0  0  0  0  0  0  0  0  0  0  0  0
   43.5154   36.4441   10.8363 C   0  0  0  0  0  0  0  0  0  0  0  0
   44.6773   35.9020   11.3380 C   0  0  0  0  0  0  0  0  0  0  0  0
  1  2  2  0
  2  3  1  0
  3  4  2  0
  4  5  1  0
  5  6  2  0
  6  7  1  0
  4  8  1  0
  7  8  1  0
  1  9  1  0
  8  9  2  0
  6 10  1  0
 10 11  1  0
 11 12  1  0
 12 13  2  0
 12 14  1  0
 14 15  1  0
 15 16  1  0
 16 17  2  0
 11 18  1  0
 16 18  1  0
  5 19  1  0
 18 19  1  6
 15 20  1  0
 10 21  1  6
 21 22  2  0
 22 23  1  0
 23 24  2  0
 24 25  1  0
 25 26  1  0
 26 27  1  0
 24 28  1  0
 27 28  1  0
 21 29  1  0
 28 29  2  0
M  END
$$$$
