6TW7_NZB_AAA_1003
     RDKit          3D

 29 32  0  0  0  0  0  0  0  0999 V2000
    4.4702   46.8650   59.0103 C   0  0  0  0  0  0  0  0  0  0  0  0
    3.3901   45.9113   59.3598 C   0  0  0  0  0  0  0  0  0  0  0  0
    1.3031   45.0383   58.6446 C   0  0  0  0  0  0  0  0  0  0  0  0
    4.9193   47.0429   57.7499 N   0  0  0  0  0  0  0  0  0  0  0  0
    6.8838   49.5466   60.9624 C   0  0  0  0  0  0  0  0  0  0  0  0
    6.9341   49.3241   59.5961 C   0  0  0  0  0  0  0  0  0  0  0  0
    6.0712   48.3967   59.0593 C   0  0  0  0  0  0  0  0  0  0  0  0
    5.9878   48.8569   61.7842 C   0  0  0  0  0  0  0  0  0  0  0  0
    4.6127   52.5263   63.2907 C   0  0  0  0  0  0  0  0  0  0  0  0
    4.2142   53.4639   62.1804 C   0  0  0  0  0  0  0  0  0  0  0  0
    5.2648   54.4983   61.9971 C   0  0  0  0  0  0  0  0  0  0  0  0
    5.6718   50.4167   63.6989 C   0  0  0  0  0  0  0  0  0  0  0  0
    5.6936   50.6423   65.0747 C   0  0  0  0  0  0  0  0  0  0  0  0
    5.1663   55.5112   61.0649 C   0  0  0  0  0  0  0  0  0  0  0  0
    5.9949   49.1484   63.2128 C   0  0  0  0  0  0  0  0  0  0  0  0
    5.1773   47.7024   59.8472 C   0  0  0  0  0  0  0  0  0  0  0  0
    5.1375   47.9336   61.2060 C   0  0  0  0  0  0  0  0  0  0  0  0
    6.0374   49.5908   65.9027 C   0  0  0  0  0  0  0  0  0  0  0  0
    6.3583   48.3349   65.4375 C   0  0  0  0  0  0  0  0  0  0  0  0
    6.3368   48.1102   64.0727 C   0  0  0  0  0  0  0  0  0  0  0  0
    5.8832   47.9668   57.7874 N   0  0  0  0  0  0  0  0  0  0  0  0
    6.0501   49.8426   67.2478 F   0  0  0  0  0  0  0  0  0  0  0  0
    2.2807   46.1042   58.4455 N   0  0  0  0  0  0  0  0  0  0  0  0
    1.6314   47.3595   58.6513 C   0  0  0  0  0  0  0  0  0  0  0  0
    5.3371   51.4184   62.7922 O   0  0  0  0  0  0  0  0  0  0  0  0
    6.3796   54.4275   62.8021 C   0  0  0  0  0  0  0  0  0  0  0  0
    7.3937   55.3114   62.7232 N   0  0  0  0  0  0  0  0  0  0  0  0
    7.3275   56.3249   61.8120 C   0  0  0  0  0  0  0  0  0  0  0  0
    6.2179   56.4307   60.9805 C   0  0  0  0  0  0  0  0  0  0  0  0
  1  2  1  0
  1  4  1  0
  5  6  2  0
  6  7  1  0
  5  8  1  0
  9 10  1  0
 10 11  1  1
 12 13  2  0
 11 14  2  0
  8 15  1  0
 12 15  1  0
  7 16  1  0
  1 16  2  0
 16 17  1  0
  8 17  2  0
 13 18  1  0
 18 19  2  0
 19 20  1  0
 15 20  2  0
  7 21  2  0
  4 21  1  0
 18 22  1  0
  3 23  1  1
  2 23  1  6
 24 23  1  1
 12 25  1  0
  9 25  1  1
 11 26  1  0
 26 27  2  0
 27 28  1  0
 14 29  1  0
 28 29  2  0
M  END
$$$$
