7EN7_J79_A_301
     RDKit          3D

 24 24  0  0  0  0  0  0  0  0999 V2000
    2.5220  -12.1210  -10.9340 C   0  0  1  0  0  0  0  0  0  0  0  0
    3.9440  -12.1140  -10.4950 C   0  0  1  0  0  0  0  0  0  0  0  0
    5.5690  -10.6730  -11.5390 C   0  0  2  0  0  0  0  0  0  0  0  0
    5.0660   -9.6350  -12.5800 C   0  0  0  0  0  0  0  0  0  0  0  0
    7.0140  -11.0760  -11.7600 C   0  0  0  0  0  0  0  0  0  0  0  0
    4.3430  -13.4210   -9.9000 C   0  0  2  0  0  0  0  0  0  0  0  0
    6.7520  -14.2410   -9.8850 C   0  0  0  0  0  0  0  0  0  0  0  0
    8.1750  -14.1040   -9.2930 C   0  0  0  0  0  0  0  0  0  0  0  0
    3.4500  -13.7990   -8.7430 C   0  0  2  0  0  0  0  0  0  0  0  0
    1.6530  -12.5380   -9.7610 C   0  0  1  0  0  0  0  0  0  0  0  0
    0.2160  -12.6780  -10.1840 C   0  0  0  0  0  0  0  0  0  0  0  0
    5.7290  -13.3450   -9.3780 N   0  0  0  0  0  0  0  0  0  0  0  0
    2.1380  -10.7960  -11.3440 O   0  0  0  0  0  0  0  0  0  0  0  0
    4.7880  -11.8460  -11.6630 O   0  0  0  0  0  0  0  0  0  0  0  0
    7.3000  -11.8970  -12.6710 O   0  0  0  0  0  0  0  0  0  0  0  0
    7.9100  -10.5980  -11.0410 O   0  0  0  0  0  0  0  0  0  0  0  0
    6.5000  -15.0370  -10.7190 O   0  0  0  0  0  0  0  0  0  0  0  0
    3.7160  -15.0660   -8.2880 O   0  0  0  0  0  0  0  0  0  0  0  0
    2.0740  -13.8470   -9.2620 O   0  0  0  0  0  0  0  0  0  0  0  0
    0.1580  -13.6370  -11.2190 O   0  0  0  0  0  0  0  0  0  0  0  0
   -1.5490  -12.5400  -12.7820 O   0  0  0  0  0  0  0  0  0  0  0  0
   -2.3390  -14.0270  -10.9430 O   0  0  0  0  0  0  0  0  0  0  0  0
   -1.0980  -15.0260  -12.8900 O   0  0  0  0  0  0  0  0  0  0  0  0
   -1.2940  -13.8180  -11.9980 P   0  0  0  0  0  0  0  0  0  0  0  0
  1  2  1  0
  3  4  1  6
  3  5  1  0
  2  6  1  0
  7  8  1  0
  6  9  1  0
  1 10  1  0
 10 11  1  6
  6 12  1  1
  7 12  1  0
  1 13  1  1
  3 14  1  0
  2 14  1  6
  5 15  2  0
  5 16  1  0
  7 17  2  0
  9 18  1  6
 10 19  1  0
  9 19  1  0
 11 20  1  0
 23 24  2  0
 21 24  1  0
 20 24  1  0
 22 24  1  0
M  END
$$$$
