6YQV_8K2_H_308
     RDKit          3D

 10 10  0  0  0  0  0  0  0  0999 V2000
   10.9523  -10.2983   23.9115 C   0  0  0  0  0  0  0  0  0  0  0  0
   11.7643   -7.7412   24.7704 Cl  0  0  0  0  0  0  0  0  0  0  0  0
   11.7624   -9.2214   23.8604 C   0  0  0  0  0  0  0  0  0  0  0  0
   11.1721  -11.3200   23.0884 C   0  0  0  0  0  0  0  0  0  0  0  0
   12.9698   -9.6289   22.5446 S   0  0  0  0  0  0  0  0  0  0  0  0
   12.2445  -11.2062   22.2128 C   0  0  0  0  0  0  0  0  0  0  0  0
   12.7832  -12.3814   21.0138 S   0  0  2  0  0  0  0  0  0  0  0  0
   14.2478  -12.2131   20.8285 O   0  0  0  0  0  0  0  0  0  0  0  0
   12.1333  -12.1046   19.6726 O   0  0  0  0  0  0  0  0  0  0  0  0
   12.3113  -13.9763   21.4437 N   0  0  0  0  0  0  0  0  0  0  0  0
  1  3  2  0
  2  3  1  0
  1  4  1  0
  3  5  1  0
  4  6  2  0
  5  6  1  0
  6  7  1  0
  7  8  2  0
  7  9  2  0
  7 10  1  1
M  END
$$$$
