6VTA_AKN_A_302
     RDKit          3D

 40 42  0  0  0  0  0  0  0  0999 V2000
   96.7380    8.4780   31.0790 C   0  0  1  0  0  0  0  0  0  0  0  0
   98.2300    8.6620   30.8470 C   0  0  1  0  0  0  0  0  0  0  0  0
   98.7210    7.6510   29.8700 C   0  0  2  0  0  0  0  0  0  0  0  0
   98.4830    6.2580   30.3640 C   0  0  1  0  0  0  0  0  0  0  0  0
   96.9970    6.0510   30.6560 C   0  0  1  0  0  0  0  0  0  0  0  0
   96.7600    4.7300   31.3180 C   0  0  0  0  0  0  0  0  0  0  0  0
   98.8450    5.3000   29.3630 O   0  0  0  0  0  0  0  0  0  0  0  0
   96.1060    8.7360   29.8750 O   0  0  0  0  0  0  0  0  0  0  0  0
   96.4850    7.0890   31.5550 O   0  0  0  0  0  0  0  0  0  0  0  0
   95.3640    4.6340   31.7060 N   0  0  0  0  0  0  0  0  0  0  0  0
   92.0340    9.3420   28.8490 C   0  0  2  0  0  0  0  0  0  0  0  0
   90.6480    9.0070   28.4990 N   0  0  0  0  0  0  0  0  0  0  0  0
   92.9400    8.5350   27.9170 C   0  0  0  0  0  0  0  0  0  0  0  0
   94.4190    8.7810   28.2660 C   0  0  2  0  0  0  0  0  0  0  0  0
   95.2860    8.0090   27.3710 N   0  0  0  0  0  0  0  0  0  0  0  0
   94.7070    8.4450   29.7320 C   0  0  2  0  0  0  0  0  0  0  0  0
   93.7980    9.2900   30.6380 C   0  0  2  0  0  0  0  0  0  0  0  0
   93.9700    8.9890   32.0030 O   0  0  0  0  0  0  0  0  0  0  0  0
   92.3070    9.0510   30.3310 C   0  0  1  0  0  0  0  0  0  0  0  0
   91.5580    9.9350   31.1510 O   0  0  0  0  0  0  0  0  0  0  0  0
   90.3350    9.4450   31.5580 C   0  0  2  0  0  0  0  0  0  0  0  0
   89.5020   10.5720   32.1390 C   0  0  2  0  0  0  0  0  0  0  0  0
   89.4070   11.6330   31.1680 O   0  0  0  0  0  0  0  0  0  0  0  0
   90.0930   11.0900   33.4140 C   0  0  1  0  0  0  0  0  0  0  0  0
   89.2300   12.1950   33.9500 N   0  0  0  0  0  0  0  0  0  0  0  0
   90.2070    9.9740   34.4220 C   0  0  2  0  0  0  0  0  0  0  0  0
   90.8050   10.4530   35.6340 O   0  0  0  0  0  0  0  0  0  0  0  0
   91.0690    8.8520   33.8540 C   0  0  2  0  0  0  0  0  0  0  0  0
   90.5320    8.3520   32.5740 O   0  0  0  0  0  0  0  0  0  0  0  0
   91.1500    7.6920   34.8070 C   0  0  0  0  0  0  0  0  0  0  0  0
   89.8450    7.2800   35.1330 O   0  0  0  0  0  0  0  0  0  0  0  0
   98.4380    9.9850   30.3360 O   0  0  0  0  0  0  0  0  0  0  0  0
  100.1360    7.8710   29.6890 O   0  0  0  0  0  0  0  0  0  0  0  0
   85.0340   10.2500   29.6500 N   0  0  0  0  0  0  0  0  0  0  0  0
   89.7240   10.0640   28.0650 C   0  0  0  0  0  0  0  0  0  0  0  0
   90.0680   11.1980   27.9920 O   0  0  0  0  0  0  0  0  0  0  0  0
   88.3050    9.6470   27.7150 C   0  0  2  0  0  0  0  0  0  0  0  0
   87.3520   10.2460   28.7840 C   0  0  0  0  0  0  0  0  0  0  0  0
   85.9370    9.6020   28.6470 C   0  0  0  0  0  0  0  0  0  0  0  0
   88.2510    8.2720   27.7780 O   0  0  0  0  0  0  0  0  0  0  0  0
  1  2  1  0
  2  3  1  0
  3  4  1  0
  4  5  1  0
  5  6  1  1
  4  7  1  6
  1  8  1  6
  5  9  1  0
  1  9  1  0
  6 10  1  0
 11 12  1  6
 11 13  1  0
 13 14  1  0
 14 15  1  6
 14 16  1  0
 16  8  1  1
 16 17  1  0
 17 18  1  1
 11 19  1  0
 17 19  1  0
 19 20  1  1
 21 20  1  1
 21 22  1  0
 22 23  1  6
 22 24  1  0
 24 25  1  1
 24 26  1  0
 26 27  1  1
 26 28  1  0
 21 29  1  0
 28 29  1  0
 28 30  1  1
 30 31  1  0
  2 32  1  6
  3 33  1  1
 12 35  1  0
 35 36  2  0
 35 37  1  0
 37 38  1  0
 38 39  1  0
 34 39  1  0
 37 40  1  1
M  END
$$$$
6VTA_AKN_B_302
     RDKit          3D

 40 42  0  0  0  0  0  0  0  0999 V2000
  118.2870   13.6010    3.1010 C   0  0  1  0  0  0  0  0  0  0  0  0
  118.3990   13.1920    4.5660 C   0  0  1  0  0  0  0  0  0  0  0  0
  117.8020   14.2420    5.4370 C   0  0  2  0  0  0  0  0  0  0  0  0
  118.4540   15.5810    5.2210 C   0  0  1  0  0  0  0  0  0  0  0  0
  118.3940   16.0100    3.7490 C   0  0  1  0  0  0  0  0  0  0  0  0
  119.2190   17.2370    3.5310 C   0  0  0  0  0  0  0  0  0  0  0  0
  117.7880   16.5740    6.0080 O   0  0  0  0  0  0  0  0  0  0  0  0
  116.9420   13.6150    2.8160 O   0  0  0  0  0  0  0  0  0  0  0  0
  118.9130   14.9440    2.8830 O   0  0  0  0  0  0  0  0  0  0  0  0
  119.2410   17.5730    2.1150 N   0  0  0  0  0  0  0  0  0  0  0  0
  114.8050   13.8600   -0.8390 C   0  0  2  0  0  0  0  0  0  0  0  0
  114.1780   14.4370   -2.0350 N   0  0  0  0  0  0  0  0  0  0  0  0
  114.3580   14.6890    0.3610 C   0  0  0  0  0  0  0  0  0  0  0  0
  115.0010   14.1190    1.6360 C   0  0  2  0  0  0  0  0  0  0  0  0
  114.5440   14.8800    2.8030 N   0  0  0  0  0  0  0  0  0  0  0  0
  116.5240   14.1340    1.5420 C   0  0  2  0  0  0  0  0  0  0  0  0
  116.9550   13.3140    0.3110 C   0  0  2  0  0  0  0  0  0  0  0  0
  118.3570   13.2820    0.1290 O   0  0  0  0  0  0  0  0  0  0  0  0
  116.3250   13.8800   -0.9810 C   0  0  1  0  0  0  0  0  0  0  0  0
  116.7170   13.0250   -2.0450 O   0  0  0  0  0  0  0  0  0  0  0  0
  116.9030   13.6410   -3.2650 C   0  0  2  0  0  0  0  0  0  0  0  0
  117.0510   12.5680   -4.3280 C   0  0  2  0  0  0  0  0  0  0  0  0
  115.9370   11.6640   -4.2050 O   0  0  0  0  0  0  0  0  0  0  0  0
  118.3450   11.8190   -4.2130 C   0  0  1  0  0  0  0  0  0  0  0  0
  118.4870   10.8260   -5.3300 N   0  0  0  0  0  0  0  0  0  0  0  0
  119.5170   12.7690   -4.2290 C   0  0  2  0  0  0  0  0  0  0  0  0
  120.7480   12.0590   -4.0500 O   0  0  0  0  0  0  0  0  0  0  0  0
  119.3710   13.7720   -3.0950 C   0  0  2  0  0  0  0  0  0  0  0  0
  118.1130   14.5390   -3.2400 O   0  0  0  0  0  0  0  0  0  0  0  0
  120.5410   14.7140   -3.0760 C   0  0  0  0  0  0  0  0  0  0  0  0
  120.5360   15.4950   -4.2510 O   0  0  0  0  0  0  0  0  0  0  0  0
  117.7180   11.9390    4.7170 O   0  0  0  0  0  0  0  0  0  0  0  0
  117.9540   13.8480    6.8290 O   0  0  0  0  0  0  0  0  0  0  0  0
  113.4530   13.7970   -7.8450 N   0  0  0  0  0  0  0  0  0  0  0  0
  113.3080   13.6160   -2.8920 C   0  0  0  0  0  0  0  0  0  0  0  0
  113.0850   12.4780   -2.6450 O   0  0  0  0  0  0  0  0  0  0  0  0
  112.6930   14.2820   -4.1170 C   0  0  2  0  0  0  0  0  0  0  0  0
  113.4650   13.7930   -5.3690 C   0  0  0  0  0  0  0  0  0  0  0  0
  112.6890   14.2500   -6.6440 C   0  0  0  0  0  0  0  0  0  0  0  0
  112.8420   15.6450   -3.9820 O   0  0  0  0  0  0  0  0  0  0  0  0
  1  2  1  0
  2  3  1  0
  3  4  1  0
  4  5  1  0
  5  6  1  1
  4  7  1  1
  1  8  1  1
  5  9  1  0
  1  9  1  0
  6 10  1  0
 11 12  1  6
 11 13  1  0
 13 14  1  0
 14 15  1  1
 14 16  1  0
 16  8  1  1
 16 17  1  0
 17 18  1  6
 11 19  1  0
 17 19  1  0
 19 20  1  6
 21 20  1  1
 21 22  1  0
 22 23  1  1
 22 24  1  0
 24 25  1  6
 24 26  1  0
 26 27  1  1
 26 28  1  0
 21 29  1  0
 28 29  1  0
 28 30  1  6
 30 31  1  0
  2 32  1  6
  3 33  1  1
 12 35  1  0
 35 36  2  0
 35 37  1  0
 37 38  1  0
 38 39  1  0
 34 39  1  0
 37 40  1  1
M  END
$$$$
