6M2B_EZO_A_403
     RDKit          3D

 39 41  0  0  0  0  0  0  0  0999 V2000
   13.5707    0.3967    7.9203 C   0  0  0  0  0  0  0  0  0  0  0  0
   13.5542   -0.0767    6.6109 C   0  0  0  0  0  0  0  0  0  0  0  0
   12.8158   -1.2154    6.2877 C   0  0  0  0  0  0  0  0  0  0  0  0
   12.0743   -1.8987    7.2731 C   0  0  0  0  0  0  0  0  0  0  0  0
   12.0646   -1.3934    8.6023 C   0  0  0  0  0  0  0  0  0  0  0  0
   12.8338   -0.2553    8.9091 C   0  0  0  0  0  0  0  0  0  0  0  0
   11.2364   -1.9878    9.6777 C   0  0  0  0  0  0  0  0  0  0  0  0
   11.3894   -3.1636    6.9121 C   0  0  0  0  0  0  0  0  0  0  0  0
   11.6870   -6.0110    5.1568 C   0  0  0  0  0  0  0  0  0  0  0  0
   10.4568   -1.1797   10.5007 O   0  0  0  0  0  0  0  0  0  0  0  0
   11.2735   -3.2303    9.8884 O   0  0  0  0  0  0  0  0  0  0  0  0
   12.0604   -4.2730    6.8149 N   0  0  0  0  0  0  0  0  0  0  0  0
   11.5035   -5.5305    6.4990 N   0  0  0  0  0  0  0  0  0  0  0  0
   10.7030   -5.9842    4.2322 N   0  0  0  0  0  0  0  0  0  0  0  0
   11.1017   -6.4967    3.0353 C   0  0  0  0  0  0  0  0  0  0  0  0
   12.4221   -6.9525    3.0105 C   0  0  0  0  0  0  0  0  0  0  0  0
   13.0951   -6.6904    4.5291 S   0  0  0  0  0  0  0  0  0  0  0  0
   10.1831   -6.5863    1.8727 C   0  0  0  0  0  0  0  0  0  0  0  0
   10.5324   -6.0687    0.6007 C   0  0  0  0  0  0  0  0  0  0  0  0
    9.6248   -6.1573   -0.4627 C   0  0  0  0  0  0  0  0  0  0  0  0
    8.3763   -6.7530   -0.2805 C   0  0  0  0  0  0  0  0  0  0  0  0
    8.0250   -7.2688    0.9662 C   0  0  0  0  0  0  0  0  0  0  0  0
    8.9197   -7.1879    2.0356 C   0  0  0  0  0  0  0  0  0  0  0  0
   12.1103   -5.3587    0.2667 Cl  0  0  0  0  0  0  0  0  0  0  0  0
   10.7232   -6.2950    7.4813 C   0  0  0  0  0  0  0  0  0  0  0  0
   14.1490    1.2772    8.1690 H   0  0  0  0  0  0  0  0  0  0  0  0
   14.1250    0.4328    5.8454 H   0  0  0  0  0  0  0  0  0  0  0  0
   12.8472   -1.5759    5.2667 H   0  0  0  0  0  0  0  0  0  0  0  0
   12.8436    0.1482    9.9145 H   0  0  0  0  0  0  0  0  0  0  0  0
   10.3241   -3.1547    6.7372 H   0  0  0  0  0  0  0  0  0  0  0  0
    9.9018   -1.5794   11.2479 H   0  0  0  0  0  0  0  0  0  0  0  0
   12.9362   -7.3870    2.1636 H   0  0  0  0  0  0  0  0  0  0  0  0
    9.8906   -5.7694   -1.4380 H   0  0  0  0  0  0  0  0  0  0  0  0
    7.6814   -6.8174   -1.1079 H   0  0  0  0  0  0  0  0  0  0  0  0
    7.0552   -7.7286    1.1064 H   0  0  0  0  0  0  0  0  0  0  0  0
    8.6122   -7.5783    2.9974 H   0  0  0  0  0  0  0  0  0  0  0  0
   11.2420   -6.2943    8.4627 H   0  0  0  0  0  0  0  0  0  0  0  0
   10.6129   -7.3569    7.1831 H   0  0  0  0  0  0  0  0  0  0  0  0
    9.7152   -5.8433    7.5900 H   0  0  0  0  0  0  0  0  0  0  0  0
  1  2  4  0
  2  3  4  0
  3  4  4  0
  4  5  4  0
  1  6  4  0
  5  6  4  0
  5  7  1  0
  4  8  1  0
  7 10  1  0
  7 11  2  0
  8 12  2  3
  9 13  1  0
 12 13  1  0
  9 14  4  0
 14 15  4  0
 15 16  4  0
 16 17  4  0
  9 17  4  0
 15 18  1  0
 18 19  4  0
 19 20  4  0
 20 21  4  0
 21 22  4  0
 22 23  4  0
 18 23  4  0
 19 24  1  0
 13 25  1  0
  1 26  1  0
  2 27  1  0
  3 28  1  0
  6 29  1  0
  8 30  1  0
 10 31  1  0
 16 32  1  0
 20 33  1  0
 21 34  1  0
 22 35  1  0
 23 36  1  0
 25 37  1  0
 25 38  1  0
 25 39  1  0
M  END
