1PMN_984_A_501
     RDKit          3D

 63 67  0  0  0  0  0  0  0  0999 V2000
    0.7113   -1.9136    0.1208 N   0  0  0  0  0  0  0  0  0  0  0  0
    1.5677   -0.9060    0.4382 C   0  0  0  0  0  0  0  0  0  0  0  0
    0.9316    0.2670    0.6407 N   0  0  0  0  0  0  0  0  0  0  0  0
   -0.3719   -0.0086    0.4587 C   0  0  0  0  0  0  0  0  0  0  0  0
   -0.5213   -1.3500    0.1414 C   0  0  0  0  0  0  0  0  0  0  0  0
    1.0621   -3.2890   -0.2585 C   0  0  0  0  0  0  0  0  0  0  0  0
    1.3677   -4.1299    0.9878 C   0  0  0  0  0  0  0  0  0  0  0  0
    1.6386   -5.5845    0.6181 C   0  0  0  0  0  0  0  0  0  0  0  0
    3.0803   -1.0298    0.5049 C   0  0  0  0  0  0  0  0  0  0  0  0
    3.6222   -0.6966    1.9089 C   0  0  0  0  0  0  0  0  0  0  0  0
    3.7168    0.8138    2.1618 C   0  0  0  0  0  0  0  0  0  0  0  0
    4.5141    1.4648    1.1053 N   0  0  0  0  0  0  0  0  0  0  0  0
    3.8610    1.3010   -0.2071 C   0  0  0  0  0  0  0  0  0  0  0  0
    3.7742   -0.1845   -0.5816 C   0  0  0  0  0  0  0  0  0  0  0  0
    4.6745    2.8951    1.4090 C   0  0  0  0  0  0  0  0  0  0  0  0
   -1.4292    1.0206    0.5401 C   0  0  0  0  0  0  0  0  0  0  0  0
   -1.7781   -1.9796   -0.3249 C   0  0  0  0  0  0  0  0  0  0  0  0
   -1.1968    2.3010    0.0145 C   0  0  0  0  0  0  0  0  0  0  0  0
   -2.2001    3.2767    0.0506 C   0  0  0  0  0  0  0  0  0  0  0  0
   -3.4437    2.9796    0.6331 C   0  0  0  0  0  0  0  0  0  0  0  0
   -3.6682    1.7126    1.1817 C   0  0  0  0  0  0  0  0  0  0  0  0
   -2.6668    0.7394    1.1412 C   0  0  0  0  0  0  0  0  0  0  0  0
   -1.8760    4.8569   -0.6488 Cl  0  0  0  0  0  0  0  0  0  0  0  0
   -4.7344    4.1724    0.6879 Cl  0  0  0  0  0  0  0  0  0  0  0  0
   -2.1855   -3.2447    0.1150 C   0  0  0  0  0  0  0  0  0  0  0  0
   -3.3995   -3.7538   -0.3471 C   0  0  0  0  0  0  0  0  0  0  0  0
   -4.1750   -3.0132   -1.1809 N   0  0  0  0  0  0  0  0  0  0  0  0
   -3.7838   -1.7742   -1.5792 C   0  0  0  0  0  0  0  0  0  0  0  0
   -2.5939   -1.2752   -1.1530 N   0  0  0  0  0  0  0  0  0  0  0  0
   -4.6347   -0.9907   -2.4209 N   0  0  0  0  0  0  0  0  0  0  0  0
   -4.3933    0.4355   -2.6250 C   0  0  0  0  0  0  0  0  0  0  0  0
   -3.2477    0.7236   -3.5805 C   0  0  0  0  0  0  0  0  0  0  0  0
   -4.6864    0.9142   -4.0358 C   0  0  0  0  0  0  0  0  0  0  0  0
    1.9388   -3.2811   -0.9407 H   0  0  0  0  0  0  0  0  0  0  0  0
    0.2391   -3.7537   -0.8390 H   0  0  0  0  0  0  0  0  0  0  0  0
    0.5128   -4.0890    1.6942 H   0  0  0  0  0  0  0  0  0  0  0  0
    2.2558   -3.7233    1.5150 H   0  0  0  0  0  0  0  0  0  0  0  0
    0.7470   -6.0299    0.1273 H   0  0  0  0  0  0  0  0  0  0  0  0
    1.8651   -6.1655    1.5368 H   0  0  0  0  0  0  0  0  0  0  0  0
    2.5088   -5.6515   -0.0692 H   0  0  0  0  0  0  0  0  0  0  0  0
    3.3646   -2.0813    0.3065 H   0  0  0  0  0  0  0  0  0  0  0  0
    4.6412   -1.1312    2.0111 H   0  0  0  0  0  0  0  0  0  0  0  0
    2.9834   -1.1671    2.6882 H   0  0  0  0  0  0  0  0  0  0  0  0
    4.2110    0.9592    3.1480 H   0  0  0  0  0  0  0  0  0  0  0  0
    2.7007    1.2614    2.2313 H   0  0  0  0  0  0  0  0  0  0  0  0
    2.8491    1.7636   -0.2128 H   0  0  0  0  0  0  0  0  0  0  0  0
    4.4625    1.8118   -0.9915 H   0  0  0  0  0  0  0  0  0  0  0  0
    3.2420   -0.2957   -1.5519 H   0  0  0  0  0  0  0  0  0  0  0  0
    4.8087   -0.5678   -0.7265 H   0  0  0  0  0  0  0  0  0  0  0  0
    5.1879    3.0241    2.3861 H   0  0  0  0  0  0  0  0  0  0  0  0
    5.3118    3.3801    0.6384 H   0  0  0  0  0  0  0  0  0  0  0  0
    3.6904    3.4142    1.4453 H   0  0  0  0  0  0  0  0  0  0  0  0
   -0.2442    2.5339   -0.4467 H   0  0  0  0  0  0  0  0  0  0  0  0
   -4.6214    1.4793    1.6391 H   0  0  0  0  0  0  0  0  0  0  0  0
   -2.8582   -0.2313    1.5814 H   0  0  0  0  0  0  0  0  0  0  0  0
   -1.5949   -3.8192    0.8126 H   0  0  0  0  0  0  0  0  0  0  0  0
   -3.7336   -4.7324   -0.0291 H   0  0  0  0  0  0  0  0  0  0  0  0
   -5.5341   -1.4033   -2.7571 H   0  0  0  0  0  0  0  0  0  0  0  0
   -4.5348    1.1394   -1.7773 H   0  0  0  0  0  0  0  0  0  0  0  0
   -2.7489   -0.1680   -4.0179 H   0  0  0  0  0  0  0  0  0  0  0  0
   -2.7069    1.6707   -3.3704 H   0  0  0  0  0  0  0  0  0  0  0  0
   -5.0024    1.9765   -4.1017 H   0  0  0  0  0  0  0  0  0  0  0  0
   -5.0434    0.1361   -4.7443 H   0  0  0  0  0  0  0  0  0  0  0  0
  1  2  1  0
  2  3  2  0
  3  4  1  0
  1  5  1  0
  4  5  2  0
  1  6  1  0
  6  7  1  0
  7  8  1  0
  2  9  1  0
  9 10  1  0
 10 11  1  0
 11 12  1  0
 12 13  1  0
  9 14  1  0
 13 14  1  0
 12 15  1  0
  4 16  1  0
  5 17  1  0
 16 18  2  0
 18 19  1  0
 19 20  2  0
 20 21  1  0
 16 22  1  0
 21 22  2  0
 19 23  1  0
 20 24  1  0
 17 25  2  0
 25 26  1  0
 26 27  2  0
 27 28  1  0
 17 29  1  0
 28 29  2  0
 28 30  1  0
 30 31  1  0
 31 32  1  0
 31 33  1  0
 32 33  1  0
  6 34  1  0
  6 35  1  0
  7 36  1  0
  7 37  1  0
  8 38  1  0
  8 39  1  0
  8 40  1  0
  9 41  1  0
 10 42  1  0
 10 43  1  0
 11 44  1  0
 11 45  1  0
 13 46  1  0
 13 47  1  0
 14 48  1  0
 14 49  1  0
 15 50  1  0
 15 51  1  0
 15 52  1  0
 18 53  1  0
 21 54  1  0
 22 55  1  0
 25 56  1  0
 26 57  1  0
 30 58  1  0
 31 59  1  0
 32 60  1  0
 32 61  1  0
 33 62  1  0
 33 63  1  0
M  END
