
     RDKit          3D

 17 16  0  0  0  0  0  0  0  0999 V2000
    6.0705  -16.7623   -1.4483 C   0  0  0  0  0  0  0  0  0  0  0  0
    6.4980  -15.4844   -1.4187 O   0  0  0  0  0  0  0  0  0  0  0  0
    6.0912  -17.4436   -0.4382 O   0  0  0  0  0  0  0  0  0  0  0  0
    5.6428  -17.1798   -2.8305 C   0  0  0  0  0  0  0  0  0  0  0  0
    6.8033  -17.6376   -3.7150 C   0  0  0  0  0  0  0  0  0  0  0  0
    7.5296  -19.8209   -4.8623 C   0  0  0  0  0  0  0  0  0  0  0  0
    7.1355  -20.8582   -5.9181 C   0  0  0  0  0  0  0  0  0  0  0  0
    6.4439  -18.7565   -4.7005 C   0  0  0  0  0  0  0  0  0  0  0  0
    7.5494  -22.2663   -5.4923 C   0  0  0  0  0  0  0  0  0  0  0  0
    6.3770  -23.1873   -5.1365 C   0  0  0  0  0  0  0  0  0  0  0  0
    6.7760  -24.4860   -4.4273 C   0  0  0  0  0  0  0  0  0  0  0  0
    7.6387  -24.2476   -3.1846 C   0  0  0  0  0  0  0  0  0  0  0  0
    6.8690  -24.5801   -1.9036 C   0  0  0  0  0  0  0  0  0  0  0  0
    7.4589  -23.8454   -0.6963 C   0  0  0  0  0  0  0  0  0  0  0  0
    6.5592  -22.7160   -0.1828 C   0  0  0  0  0  0  0  0  0  0  0  0
    7.2168  -21.7932    0.8474 C   0  0  0  0  0  0  0  0  0  0  0  0
    7.2908  -20.3350    0.4296 C   0  0  0  0  0  0  0  0  0  0  0  0
  1  2  1  0
  1  3  2  0
  1  4  1  0
  4  5  1  0
  6  7  1  0
  5  8  1  0
  6  8  1  0
  7  9  1  0
  9 10  1  0
 10 11  1  0
 11 12  1  0
 12 13  1  0
 13 14  1  0
 14 15  1  0
 15 16  1  0
 16 17  1  0
M  END
