7FB7_8NF_A_304
     RDKit          3D

  9  9  0  0  0  0  0  0  0  0999 V2000
   49.0245   14.9713   50.6828 C   0  0  0  0  0  0  0  0  0  0  0  0
   47.9667   15.4607   51.6711 C   0  0  0  0  0  0  0  0  0  0  0  0
   46.8262   14.7171   51.8573 C   0  0  0  0  0  0  0  0  0  0  0  0
   45.8917   15.2021   52.7827 C   0  0  0  0  0  0  0  0  0  0  0  0
   47.2578   17.0498   53.2895 C   0  0  0  0  0  0  0  0  0  0  0  0
   48.1941   16.5944   52.3733 C   0  0  0  0  0  0  0  0  0  0  0  0
   44.5870   14.4645   53.0936 C   0  0  0  0  0  0  0  0  0  0  0  0
   46.1342   16.3142   53.4512 N   0  0  0  0  0  0  0  0  0  0  0  0
   49.3820   17.4160   52.2367 N   0  0  0  0  0  0  0  0  0  0  0  0
  1  2  1  0
  2  3  2  0
  3  4  1  0
  5  6  2  0
  2  6  1  0
  4  7  1  0
  5  8  1  0
  4  8  2  0
  6  9  1  0
M  END
