1L7F_BCZ_A_801
     RDKit          3D

 51 51  0  0  0  0  0  0  0  0999 V2000
   24.6922   16.3552   63.3939 C   0  0  1  0  0  0  0  0  0  0  0  0
   24.6164   15.4816   62.2230 N   0  0  0  0  0  0  0  0  0  0  0  0
   23.7669   14.5155   62.1924 C   0  0  0  0  0  0  0  0  0  0  0  0
   22.4986   14.5391   62.7102 N   0  0  0  0  0  0  0  0  0  0  0  0
   24.1194   13.3563   61.5406 N   0  0  0  0  0  0  0  0  0  0  0  0
   25.6419   17.5446   63.0682 C   0  0  2  0  0  0  0  0  0  0  0  0
   27.1770   17.2180   63.0591 C   0  0  2  0  0  0  0  0  0  0  0  0
   27.9021   17.8501   61.8032 C   0  0  2  0  0  0  0  0  0  0  0  0
   29.1017   16.9786   61.3214 C   0  0  0  0  0  0  0  0  0  0  0  0
   30.3493   16.9396   62.2342 C   0  0  0  0  0  0  0  0  0  0  0  0
   28.3285   19.3119   62.1703 C   0  0  0  0  0  0  0  0  0  0  0  0
   28.4891   20.2593   60.9601 C   0  0  0  0  0  0  0  0  0  0  0  0
   27.3902   15.7649   63.0987 N   0  0  0  0  0  0  0  0  0  0  0  0
   26.8482   14.9673   62.1382 C   0  0  0  0  0  0  0  0  0  0  0  0
   27.7282   14.5640   60.9697 C   0  0  0  0  0  0  0  0  0  0  0  0
   25.7031   14.5401   62.1338 O   0  0  0  0  0  0  0  0  0  0  0  0
   25.2699   18.6332   64.1358 C   0  0  2  0  0  0  0  0  0  0  0  0
   26.0717   18.4106   65.3305 O   0  0  0  0  0  0  0  0  0  0  0  0
   23.7739   18.3461   64.5021 C   0  0  1  0  0  0  0  0  0  0  0  0
   22.8570   19.5148   64.3134 C   0  0  0  0  0  0  0  0  0  0  0  0
   22.7267   20.4235   65.1330 O   0  0  0  0  0  0  0  0  0  0  0  0
   22.0938   19.5166   63.2193 O   0  0  0  0  0  0  0  0  0  0  0  0
   23.3608   17.1138   63.6577 C   0  0  0  0  0  0  0  0  0  0  0  0
   24.9805   15.7218   64.2066 H   0  0  0  0  0  0  0  0  0  0  0  0
   25.2163   15.6330   61.4572 H   0  0  0  0  0  0  0  0  0  0  0  0
   22.1774   15.3365   63.1901 H   0  0  0  0  0  0  0  0  0  0  0  0
   25.0157   13.2681   61.1431 H   0  0  0  0  0  0  0  0  0  0  0  0
   23.4752   12.6150   61.4717 H   0  0  0  0  0  0  0  0  0  0  0  0
   25.4922   17.8631   62.0578 H   0  0  0  0  0  0  0  0  0  0  0  0
   27.6080   17.6567   63.9348 H   0  0  0  0  0  0  0  0  0  0  0  0
   27.2284   17.8794   60.9724 H   0  0  0  0  0  0  0  0  0  0  0  0
   29.4105   17.3526   60.3677 H   0  0  0  0  0  0  0  0  0  0  0  0
   28.7313   15.9748   61.3125 H   0  0  0  0  0  0  0  0  0  0  0  0
   30.7791   17.9177   62.2927 H   0  0  0  0  0  0  0  0  0  0  0  0
   31.0674   16.2582   61.8278 H   0  0  0  0  0  0  0  0  0  0  0  0
   30.0648   16.6158   63.2135 H   0  0  0  0  0  0  0  0  0  0  0  0
   29.2653   19.2669   62.6853 H   0  0  0  0  0  0  0  0  0  0  0  0
   27.5391   19.7164   62.7688 H   0  0  0  0  0  0  0  0  0  0  0  0
   29.2712   19.8979   60.3256 H   0  0  0  0  0  0  0  0  0  0  0  0
   28.7356   21.2413   61.3062 H   0  0  0  0  0  0  0  0  0  0  0  0
   27.5717   20.2946   60.4105 H   0  0  0  0  0  0  0  0  0  0  0  0
   27.9267   15.3670   63.8220 H   0  0  0  0  0  0  0  0  0  0  0  0
   28.6991   14.9977   61.0881 H   0  0  0  0  0  0  0  0  0  0  0  0
   27.2910   14.9119   60.0572 H   0  0  0  0  0  0  0  0  0  0  0  0
   27.8151   13.4979   60.9399 H   0  0  0  0  0  0  0  0  0  0  0  0
   25.4311   19.6274   63.7747 H   0  0  0  0  0  0  0  0  0  0  0  0
   25.9237   17.5089   65.6558 H   0  0  0  0  0  0  0  0  0  0  0  0
   23.6858   18.1507   65.5504 H   0  0  0  0  0  0  0  0  0  0  0  0
   22.1811   18.8316   62.5859 H   0  0  0  0  0  0  0  0  0  0  0  0
   22.6755   16.4967   64.2003 H   0  0  0  0  0  0  0  0  0  0  0  0
   22.8650   17.3908   62.7509 H   0  0  0  0  0  0  0  0  0  0  0  0
  1  2  1  0
  2  3  1  0
  3  4  2  3
  3  5  1  0
  1  6  1  0
  6  7  1  0
  7  8  1  0
  8  9  1  0
  9 10  1  0
  8 11  1  0
 11 12  1  0
  7 13  1  0
 13 14  1  0
 14 15  1  0
 14 16  2  0
  6 17  1  0
 17 18  1  0
 17 19  1  0
 19 20  1  0
 20 21  2  0
 20 22  1  0
  1 23  1  0
 19 23  1  0
  1 24  1  1
  2 25  1  0
  4 26  1  0
  5 27  1  0
  5 28  1  0
  6 29  1  6
  7 30  1  1
  8 31  1  6
  9 32  1  0
  9 33  1  0
 10 34  1  0
 10 35  1  0
 10 36  1  0
 11 37  1  0
 11 38  1  0
 12 39  1  0
 12 40  1  0
 12 41  1  0
 13 42  1  0
 15 43  1  0
 15 44  1  0
 15 45  1  0
 17 46  1  6
 18 47  1  0
 19 48  1  1
 22 49  1  0
 23 50  1  0
 23 51  1  0
M  END
