1L7F_BCZ_A_801
     RDKit          3D

 23 23  0  0  0  0  0  0  0  0999 V2000
   24.6460   16.5550   63.1530 C   0  0  1  0  0  0  0  0  0  0  0  0
   24.2740   15.9440   61.8770 N   0  0  0  0  0  0  0  0  0  0  0  0
   23.8880   14.7170   61.8370 C   0  0  0  0  0  0  0  0  0  0  0  0
   23.6880   13.8980   62.9170 N   0  0  0  0  0  0  0  0  0  0  0  0
   23.5920   14.1650   60.6120 N   0  0  0  0  0  0  0  0  0  0  0  0
   25.7230   17.6470   62.8880 C   0  0  2  0  0  0  0  0  0  0  0  0
   27.1700   17.1260   62.5750 C   0  0  2  0  0  0  0  0  0  0  0  0
   28.1920   18.3180   62.3820 C   0  0  0  0  0  0  0  0  0  0  0  0
   27.7850   19.2510   61.2010 C   0  0  0  0  0  0  0  0  0  0  0  0
   28.4340   20.6540   61.1620 C   0  0  0  0  0  0  0  0  0  0  0  0
   29.6240   17.7090   62.2030 C   0  0  0  0  0  0  0  0  0  0  0  0
   30.1080   16.8420   63.3870 C   0  0  0  0  0  0  0  0  0  0  0  0
   27.1560   16.2630   61.3860 N   0  0  0  0  0  0  0  0  0  0  0  0
   27.2660   14.9130   61.5190 C   0  0  0  0  0  0  0  0  0  0  0  0
   27.1800   14.0660   60.2630 C   0  0  0  0  0  0  0  0  0  0  0  0
   27.4320   14.3150   62.5720 O   0  0  0  0  0  0  0  0  0  0  0  0
   25.6780   18.5470   64.1730 C   0  0  2  0  0  0  0  0  0  0  0  0
   26.5860   17.9910   65.1660 O   0  0  0  0  0  0  0  0  0  0  0  0
   24.2180   18.3970   64.7210 C   0  0  1  0  0  0  0  0  0  0  0  0
   23.4850   19.6920   64.8870 C   0  0  0  0  0  0  0  0  0  0  0  0
   22.2660   19.7760   65.0340 O   0  0  0  0  0  0  0  0  0  0  0  0
   24.2040   20.8120   64.7970 O   0  0  0  0  0  0  0  0  0  0  0  0
   23.5020   17.4190   63.7550 C   0  0  0  0  0  0  0  0  0  0  0  0
  1  2  1  6
  2  3  1  0
  3  4  2  0
  3  5  1  0
  1  6  1  0
  6  7  1  1
  7  8  1  0
  8  9  1  0
  9 10  1  0
  8 11  1  0
 11 12  1  0
  7 13  1  6
 13 14  1  0
 14 15  1  0
 14 16  2  0
  6 17  1  0
 17 18  1  1
 17 19  1  0
 19 20  1  6
 20 21  2  0
 20 22  1  0
  1 23  1  0
 19 23  1  0
M  END
$$$$
