7TOM_5AD_A_605
     RDKit          3D

 18 20  0  0  0  0  0  0  0  0999 V2000
   17.0182   47.6998   48.4491 N   0  0  0  0  0  0  0  0  0  0  0  0
   16.7512   47.7021   47.1202 C   0  0  0  0  0  0  0  0  0  0  0  0
   16.4460   46.5629   46.4545 N   0  0  0  0  0  0  0  0  0  0  0  0
   16.4023   45.4077   47.1016 C   0  0  0  0  0  0  0  0  0  0  0  0
   16.1364   44.1613   46.7118 N   0  0  0  0  0  0  0  0  0  0  0  0
   16.2402   43.3759   47.8150 C   0  0  0  0  0  0  0  0  0  0  0  0
   16.5723   44.1528   48.8844 N   0  0  0  0  0  0  0  0  0  0  0  0
   16.6764   45.4053   48.4655 C   0  0  0  0  0  0  0  0  0  0  0  0
   16.9892   46.5568   49.1595 C   0  0  0  0  0  0  0  0  0  0  0  0
   17.2694   46.5480   50.5584 N   0  0  0  0  0  0  0  0  0  0  0  0
   15.8011   43.6599   45.4199 C   0  0  1  0  0  0  0  0  0  0  0  0
   16.9924   43.1855   44.6248 C   0  0  1  0  0  0  0  0  0  0  0  0
   16.2580   42.4620   43.4883 C   0  0  1  0  0  0  0  0  0  0  0  0
   15.0491   41.9427   44.2225 C   0  0  1  0  0  0  0  0  0  0  0  0
   15.0165   40.4100   44.2494 C   0  0  0  0  0  0  0  0  0  0  0  0
   15.0897   42.4410   45.5121 O   0  0  0  0  0  0  0  0  0  0  0  0
   17.8049   44.1836   44.1613 O   0  0  0  0  0  0  0  0  0  0  0  0
   15.8076   43.4740   42.6180 O   0  0  0  0  0  0  0  0  0  0  0  0
  1  2  2  0
  2  3  1  0
  3  4  2  0
  4  5  1  0
  5  6  1  0
  6  7  2  0
  4  8  1  0
  7  8  1  0
  1  9  1  0
  8  9  2  0
  9 10  1  0
 11  5  1  1
 11 12  1  0
 12 13  1  0
 13 14  1  0
 14 15  1  1
 11 16  1  0
 14 16  1  0
 12 17  1  6
 13 18  1  6
M  END
$$$$
