1HWI_115_B_1
     RDKit          3D

 56 58  0  0  0  0  0  0  0  0999 V2000
    0.4996    1.7402    2.2821 C   0  0  0  0  0  0  0  0  0  0  0  0
    1.6137    1.0448    2.6889 C   0  0  0  0  0  0  0  0  0  0  0  0
    2.2862    1.3981    3.8694 C   0  0  0  0  0  0  0  0  0  0  0  0
    1.7975    2.4840    4.6162 C   0  0  0  0  0  0  0  0  0  0  0  0
    0.6526    3.1867    4.1922 C   0  0  0  0  0  0  0  0  0  0  0  0
   -0.0153    2.8107    3.0166 C   0  0  0  0  0  0  0  0  0  0  0  0
    0.0303    1.1334    1.1367 C   0  0  0  0  0  0  0  0  0  0  0  0
    0.9041    0.0675    0.8874 C   0  0  0  0  0  0  0  0  0  0  0  0
    1.8876    0.0241    1.8369 N   0  0  0  0  0  0  0  0  0  0  0  0
   -3.3309    0.8291   -0.5740 C   0  0  0  0  0  0  0  0  0  0  0  0
   -2.1774    0.5043    0.1454 C   0  0  0  0  0  0  0  0  0  0  0  0
   -1.2041    1.4829    0.4029 C   0  0  0  0  0  0  0  0  0  0  0  0
   -1.4087    2.7944   -0.0542 C   0  0  0  0  0  0  0  0  0  0  0  0
   -2.5658    3.1176   -0.7699 C   0  0  0  0  0  0  0  0  0  0  0  0
   -3.5253    2.1352   -1.0324 C   0  0  0  0  0  0  0  0  0  0  0  0
   -4.6443    2.4495   -1.7302 F   0  0  0  0  0  0  0  0  0  0  0  0
   -1.8675   -5.8028   -3.6275 O   0  0  0  0  0  0  0  0  0  0  0  0
   -3.0598   -4.1643   -4.7092 O   0  0  0  0  0  0  0  0  0  0  0  0
   -1.3742   -2.8224   -0.5579 O   0  0  0  0  0  0  0  0  0  0  0  0
   -2.4881   -4.7080   -3.5631 C   0  0  0  0  0  0  0  0  0  0  0  0
   -2.5915   -3.9795   -2.2574 C   0  0  0  0  0  0  0  0  0  0  0  0
   -1.2747   -3.2710   -1.8825 C   0  0  1  0  0  0  0  0  0  0  0  0
   -1.0067   -2.0677   -2.8168 C   0  0  0  0  0  0  0  0  0  0  0  0
    0.3750   -1.3797   -2.6804 C   0  0  1  0  0  0  0  0  0  0  0  0
    0.4985   -0.4635   -1.4818 C   0  0  0  0  0  0  0  0  0  0  0  0
    0.7787   -0.8806   -0.2411 C   0  0  0  0  0  0  0  0  0  0  0  0
    3.0124   -0.9297    1.9582 C   0  0  0  0  0  0  0  0  0  0  0  0
    2.5360   -2.2638    2.5381 C   0  0  0  0  0  0  0  0  0  0  0  0
    3.7740   -1.1109    0.6367 C   0  0  0  0  0  0  0  0  0  0  0  0
    1.4519   -2.2779   -2.7996 O   0  0  0  0  0  0  0  0  0  0  0  0
    3.1497    0.8583    4.2284 H   0  0  0  0  0  0  0  0  0  0  0  0
    2.2985    2.7759    5.5302 H   0  0  0  0  0  0  0  0  0  0  0  0
    0.2796    4.0141    4.7817 H   0  0  0  0  0  0  0  0  0  0  0  0
   -0.9082    3.3344    2.7021 H   0  0  0  0  0  0  0  0  0  0  0  0
   -4.0740    0.0680   -0.7736 H   0  0  0  0  0  0  0  0  0  0  0  0
   -2.0466   -0.5061    0.5087 H   0  0  0  0  0  0  0  0  0  0  0  0
   -0.6654    3.5610    0.1274 H   0  0  0  0  0  0  0  0  0  0  0  0
   -2.7149    4.1290   -1.1257 H   0  0  0  0  0  0  0  0  0  0  0  0
   -2.9908   -4.6410   -5.6003 H   0  0  0  0  0  0  0  0  0  0  0  0
   -1.1958   -3.6041    0.0280 H   0  0  0  0  0  0  0  0  0  0  0  0
   -2.8504   -4.7183   -1.4677 H   0  0  0  0  0  0  0  0  0  0  0  0
   -3.4218   -3.2412   -2.3043 H   0  0  0  0  0  0  0  0  0  0  0  0
   -0.4439   -4.0075   -1.9747 H   0  0  0  0  0  0  0  0  0  0  0  0
   -1.0874   -2.4139   -3.8698 H   0  0  0  0  0  0  0  0  0  0  0  0
   -1.8049   -1.3060   -2.6709 H   0  0  0  0  0  0  0  0  0  0  0  0
    0.4454   -0.7052   -3.5619 H   0  0  0  0  0  0  0  0  0  0  0  0
    0.3965    0.5994   -1.6665 H   0  0  0  0  0  0  0  0  0  0  0  0
    0.9509   -1.9265   -0.0495 H   0  0  0  0  0  0  0  0  0  0  0  0
    3.7639   -0.5242    2.6651 H   0  0  0  0  0  0  0  0  0  0  0  0
    1.8119   -2.7644    1.8656 H   0  0  0  0  0  0  0  0  0  0  0  0
    3.4022   -2.9416    2.6942 H   0  0  0  0  0  0  0  0  0  0  0  0
    2.0461   -2.0907    3.5196 H   0  0  0  0  0  0  0  0  0  0  0  0
    3.9193   -0.1273    0.1414 H   0  0  0  0  0  0  0  0  0  0  0  0
    3.2515   -1.7973   -0.0580 H   0  0  0  0  0  0  0  0  0  0  0  0
    4.7750   -1.5486    0.8394 H   0  0  0  0  0  0  0  0  0  0  0  0
    1.4737   -2.8562   -1.9972 H   0  0  0  0  0  0  0  0  0  0  0  0
  1  2  1  0
  2  3  2  0
  3  4  1  0
  4  5  2  0
  1  6  2  0
  5  6  1  0
  1  7  1  0
  7  8  2  0
  8  9  1  0
  2  9  1  0
 10 11  2  0
  7 12  1  0
 11 12  1  0
 12 13  2  0
 13 14  1  0
 14 15  2  0
 10 15  1  0
 15 16  1  0
 17 20  2  0
 18 20  1  0
 20 21  1  0
 21 22  1  0
 22 19  1  0
 22 23  1  0
 23 24  1  0
 24 25  1  0
 25 26  2  0
  8 26  1  0
  9 27  1  0
 27 28  1  0
 27 29  1  0
 24 30  1  0
  3 31  1  0
  4 32  1  0
  5 33  1  0
  6 34  1  0
 10 35  1  0
 11 36  1  0
 13 37  1  0
 14 38  1  0
 18 39  1  0
 19 40  1  0
 21 41  1  0
 21 42  1  0
 22 43  1  1
 23 44  1  0
 23 45  1  0
 24 46  1  6
 25 47  1  0
 26 48  1  0
 27 49  1  0
 28 50  1  0
 28 51  1  0
 28 52  1  0
 29 53  1  0
 29 54  1  0
 29 55  1  0
 30 56  1  0
M  END
