1N1M_A3M_A_954
     RDKit          3D

 12 12  0  0  0  0  0  0  0  0999 V2000
   73.1913   59.6870  102.1998 C   0  0  0  0  0  0  0  0  0  0  0  0
   74.2410   60.6396  102.6531 C   0  0  0  0  0  0  0  0  0  0  0  0
   73.5234   61.7349  103.2596 N   0  0  0  0  0  0  0  0  0  0  0  0
   72.0940   61.4244  103.3421 C   0  0  0  0  0  0  0  0  0  0  0  0
   72.0407   59.9122  103.1258 C   0  0  0  0  0  0  0  0  0  0  0  0
   74.0506   62.9850  103.7505 C   0  0  0  0  0  0  0  0  0  0  0  0
   75.3806   63.4947  103.4098 C   0  0  2  0  0  0  0  0  0  0  0  0
   76.5049   62.7266  104.0526 C   0  0  1  0  0  0  0  0  0  0  0  0
   77.7993   63.2015  103.4242 C   0  0  0  0  0  0  0  0  0  0  0  0
   73.3469   63.7207  104.5317 O   0  0  0  0  0  0  0  0  0  0  0  0
   75.4556   64.9054  103.5981 N   0  0  0  0  0  0  0  0  0  0  0  0
   76.6164   62.9692  105.5295 C   0  0  0  0  0  0  0  0  0  0  0  0
  1  2  1  0
  2  3  1  0
  3  4  1  0
  1  5  1  0
  4  5  1  0
  3  6  1  0
  6  7  1  0
  7  8  1  0
  8  9  1  6
  6 10  2  0
  7 11  1  1
  8 12  1  0
M  END
$$$$
