1N1M_A3M_A_954
     RDKit          3D

 12 12  0  0  0  0  0  0  0  0999 V2000
  129.9404   72.8389  104.9621 C   0  0  0  0  0  0  0  0  0  0  0  0
  129.3560   71.4843  105.1573 C   0  0  0  0  0  0  0  0  0  0  0  0
  130.3152   70.7696  105.9644 N   0  0  0  0  0  0  0  0  0  0  0  0
  131.3824   71.6711  106.4058 C   0  0  0  0  0  0  0  0  0  0  0  0
  130.8014   73.0637  106.1623 C   0  0  0  0  0  0  0  0  0  0  0  0
  130.3039   69.3769  106.3413 C   0  0  0  0  0  0  0  0  0  0  0  0
  129.4069   68.3828  105.7481 C   0  0  2  0  0  0  0  0  0  0  0  0
  128.2402   68.0203  106.6282 C   0  0  1  0  0  0  0  0  0  0  0  0
  127.6919   69.3068  107.2115 C   0  0  0  0  0  0  0  0  0  0  0  0
  131.1086   68.9450  107.2428 O   0  0  0  0  0  0  0  0  0  0  0  0
  130.1349   67.2618  105.2538 N   0  0  0  0  0  0  0  0  0  0  0  0
  127.1183   67.3622  105.8793 C   0  0  0  0  0  0  0  0  0  0  0  0
  1  2  1  0
  2  3  1  0
  3  4  1  0
  1  5  1  0
  4  5  1  0
  3  6  1  0
  6  7  1  0
  7  8  1  0
  8  9  1  6
  6 10  2  0
  7 11  1  1
  8 12  1  0
M  END
$$$$
