1N1M_A3M_A_954
     RDKit          3D

 12 12  0  0  0  0  0  0  0  0999 V2000
  133.2544   71.0628  106.7082 C   0  0  0  0  0  0  0  0  0  0  0  0
  133.8741   70.8904  105.3663 C   0  0  0  0  0  0  0  0  0  0  0  0
  135.0181   70.0380  105.5830 N   0  0  0  0  0  0  0  0  0  0  0  0
  135.0366   69.5509  106.9647 C   0  0  0  0  0  0  0  0  0  0  0  0
  133.6176   69.8251  107.4623 C   0  0  0  0  0  0  0  0  0  0  0  0
  136.0403   69.6577  104.6383 C   0  0  0  0  0  0  0  0  0  0  0  0
  136.8297   68.4290  104.7474 C   0  0  2  0  0  0  0  0  0  0  0  0
  138.1686   68.6276  105.4069 C   0  0  1  0  0  0  0  0  0  0  0  0
  137.9738   69.6034  106.5496 C   0  0  0  0  0  0  0  0  0  0  0  0
  136.3033   70.4106  103.6330 O   0  0  0  0  0  0  0  0  0  0  0  0
  136.8902   67.7429  103.4997 N   0  0  0  0  0  0  0  0  0  0  0  0
  138.7296   67.3659  105.9950 C   0  0  0  0  0  0  0  0  0  0  0  0
  1  2  1  0
  2  3  1  0
  3  4  1  0
  1  5  1  0
  4  5  1  0
  3  6  1  0
  6  7  1  0
  7  8  1  0
  8  9  1  1
  6 10  2  0
  7 11  1  6
  8 12  1  0
M  END
$$$$
