7YZU_DO7_A_401
     RDKit          3D

 30 30  0  0  0  0  0  0  0  0999 V2000
   13.2784  -23.8256  -18.9673 C   0  0  2  0  0  0  0  0  0  0  0  0
   13.7043  -22.3966  -21.1105 C   0  0  1  0  0  0  0  0  0  0  0  0
   14.0022  -20.9693  -20.5878 C   0  0  1  0  0  0  0  0  0  0  0  0
   12.7227  -20.2523  -20.1292 C   0  0  2  0  0  0  0  0  0  0  0  0
   10.3149  -20.9081  -17.5463 C   0  0  2  0  0  0  0  0  0  0  0  0
   11.8967  -21.1764  -19.2186 C   0  0  1  0  0  0  0  0  0  0  0  0
   12.6715  -23.1641  -20.2312 C   0  0  2  0  0  0  0  0  0  0  0  0
   10.7200  -20.4914  -18.8326 O   0  0  0  0  0  0  0  0  0  0  0  0
   11.5409  -22.3616  -19.9157 O   0  0  0  0  0  0  0  0  0  0  0  0
   14.4932  -25.0842  -19.3564 S   0  0  2  0  0  6  0  0  0  0  0  0
   15.4679  -25.2542  -18.2256 O   0  0  0  0  0  0  0  0  0  0  0  0
   15.2414  -24.6978  -20.6011 O   0  0  0  0  0  0  0  0  0  0  0  0
   13.7041  -26.5432  -19.6287 O   0  0  0  0  0  0  0  0  0  0  0  0
   13.2789  -22.3452  -22.4514 O   0  0  0  0  0  0  0  0  0  0  0  0
   14.9081  -21.0233  -19.5145 O   0  0  0  0  0  0  0  0  0  0  0  0
   11.9681  -19.8641  -21.2499 O   0  0  0  0  0  0  0  0  0  0  0  0
   12.4675  -24.3194  -18.3904 H   0  0  0  0  0  0  0  0  0  0  0  0
   13.7516  -23.0735  -18.3049 H   0  0  0  0  0  0  0  0  0  0  0  0
   14.6590  -22.9611  -21.1147 H   0  0  0  0  0  0  0  0  0  0  0  0
   14.4594  -20.3681  -21.4095 H   0  0  0  0  0  0  0  0  0  0  0  0
   13.0220  -19.3455  -19.5508 H   0  0  0  0  0  0  0  0  0  0  0  0
   10.2671  -20.0465  -16.8446 H   0  0  0  0  0  0  0  0  0  0  0  0
   10.9834  -21.7006  -17.1424 H   0  0  0  0  0  0  0  0  0  0  0  0
    9.2945  -21.3370  -17.6193 H   0  0  0  0  0  0  0  0  0  0  0  0
   12.5141  -21.3999  -18.3155 H   0  0  0  0  0  0  0  0  0  0  0  0
   12.2791  -23.9928  -20.8592 H   0  0  0  0  0  0  0  0  0  0  0  0
   13.6544  -26.9764  -18.7394 H   0  0  0  0  0  0  0  0  0  0  0  0
   12.5795  -21.6465  -22.5283 H   0  0  0  0  0  0  0  0  0  0  0  0
   15.0700  -21.9835  -19.3200 H   0  0  0  0  0  0  0  0  0  0  0  0
   11.0136  -19.8772  -20.9776 H   0  0  0  0  0  0  0  0  0  0  0  0
  2  3  1  0
  3  4  1  0
  4  6  1  0
  7  1  1  0
  2  7  1  0
  6  8  1  0
  5  8  1  0
  7  9  1  0
  6  9  1  0
  1 10  1  0
 10 11  2  0
 10 12  2  0
 10 13  1  6
  2 14  1  0
  3 15  1  0
  4 16  1  0
  1 17  1  1
  1 18  1  0
  2 19  1  6
  3 20  1  6
  4 21  1  1
  5 22  1  1
  5 23  1  0
  5 24  1  0
  6 25  1  1
  7 26  1  6
 13 27  1  0
 14 28  1  0
 15 29  1  0
 16 30  1  0
M  END
