7TE8_P0T_D_201
     RDKit          3D

 23 24  0  0  0  0  0  0  0  0999 V2000
  -12.1218  -44.4964   58.6958 C   0  0  0  0  0  0  0  0  0  0  0  0
  -14.8160  -46.7118   56.7938 C   0  0  0  0  0  0  0  0  0  0  0  0
  -14.0071  -45.2025   55.1826 C   0  0  0  0  0  0  0  0  0  0  0  0
  -16.0288  -40.9154   57.0260 C   0  0  0  0  0  0  0  0  0  0  0  0
  -10.6283  -44.4457   58.4839 C   0  0  0  0  0  0  0  0  0  0  0  0
  -12.9476  -43.7326   57.6844 C   0  0  1  0  0  0  0  0  0  0  0  0
  -14.2772  -44.3228   57.4376 C   0  0  1  0  0  0  0  0  0  0  0  0
  -13.0003  -42.3306   58.2757 C   0  0  0  0  0  0  0  0  0  0  0  0
  -14.4206  -42.0219   58.7762 C   0  0  0  0  0  0  0  0  0  0  0  0
  -15.1351  -43.2258   56.8359 C   0  0  0  0  0  0  0  0  0  0  0  0
  -14.3812  -45.4412   56.5131 C   0  0  0  0  0  0  0  0  0  0  0  0
  -15.2268  -42.0740   57.4924 C   0  0  0  0  0  0  0  0  0  0  0  0
  -14.5143  -47.4676   54.5137 C   0  0  0  0  0  0  0  0  0  0  0  0
  -14.8826  -47.7117   55.8110 C   0  0  0  0  0  0  0  0  0  0  0  0
  -14.0736  -46.1859   54.2212 C   0  0  0  0  0  0  0  0  0  0  0  0
  -14.5490  -48.4402   53.4129 C   0  0  0  0  0  0  0  0  0  0  0  0
  -12.6389  -45.1630   59.6933 C   0  0  0  0  0  0  0  0  0  0  0  0
  -15.8494  -48.5647   52.7086 C   0  0  0  0  0  0  0  0  0  0  0  0
  -15.8965  -49.5925   51.6130 C   0  0  0  0  0  0  0  0  0  0  0  0
  -15.6976  -50.9540   52.1897 C   0  0  0  0  0  0  0  0  0  0  0  0
  -15.7438  -52.0389   51.1119 C   0  0  0  0  0  0  0  0  0  0  0  0
  -15.2082  -47.0710   58.0511 O   0  0  0  0  0  0  0  0  0  0  0  0
  -13.5497  -43.9540   54.7690 O   0  0  0  0  0  0  0  0  0  0  0  0
  1  5  1  0
  6  1  1  1
  6  7  1  0
  6  8  1  0
  8  9  1  0
  7 10  1  0
  2 11  2  0
  7 11  1  6
  3 11  1  0
  4 12  1  0
  9 12  1  0
 10 12  2  0
  2 14  1  0
 13 14  2  0
 13 15  1  0
  3 15  2  0
 13 16  1  0
  1 17  2  0
 16 18  1  0
 18 19  1  0
 19 20  1  0
 20 21  1  0
  2 22  1  0
  3 23  1  0
M  END
$$$$
