7NA4_1I9_A_201
     RDKit          3D

 38 43  0  0  0  0  0  0  0  0999 V2000
   -2.6961    6.2532   -3.1971 C   0  0  0  0  0  0  0  0  0  0  0  0
   -3.3454    7.6248   -3.4368 C   0  0  1  0  0  0  0  0  0  0  0  0
   -2.4400    8.4221   -4.3759 C   0  0  0  0  0  0  0  0  0  0  0  0
   -2.9733    9.8286   -4.5043 C   0  0  0  0  0  0  0  0  0  0  0  0
   -4.3049    9.8627   -5.2710 C   0  0  1  0  0  0  0  0  0  0  0  0
   -5.2845    8.9524   -4.4925 C   0  0  0  0  0  0  0  0  0  0  0  0
   -4.6872    7.5709   -4.1402 C   0  0  0  0  0  0  0  0  0  0  0  0
   -4.7930   11.3155   -5.3878 C   0  0  1  0  0  0  0  0  0  0  0  0
   -7.2081   11.9937   -4.8971 C   0  0  0  0  0  0  0  0  0  0  0  0
   -9.5269   12.9844   -3.7970 C   0  0  0  0  0  0  0  0  0  0  0  0
   -9.6292   12.2994   -4.9950 C   0  0  0  0  0  0  0  0  0  0  0  0
   -8.4454   11.7759   -5.5592 C   0  0  0  0  0  0  0  0  0  0  0  0
   -6.9090   10.8402   -6.7557 C   0  0  0  0  0  0  0  0  0  0  0  0
   -4.9412   10.4642   -9.8634 C   0  0  0  0  0  0  0  0  0  0  0  0
   -4.4583   11.5584  -10.8198 C   0  0  0  0  0  0  0  0  0  0  0  0
   -7.0482    9.0523  -10.1438 C   0  0  0  0  0  0  0  0  0  0  0  0
  -12.7408   13.9984   -2.5539 C   0  0  0  0  0  0  0  0  0  0  0  0
   -6.0518   13.0102   -2.8492 C   0  0  0  0  0  0  0  0  0  0  0  0
   -5.7926   12.2357   -1.7218 C   0  0  0  0  0  0  0  0  0  0  0  0
   -4.6898   12.5837   -0.9561 C   0  0  0  0  0  0  0  0  0  0  0  0
   -3.8508   13.6282   -1.3413 C   0  0  0  0  0  0  0  0  0  0  0  0
   -5.1978   14.0941   -3.1585 C   0  0  0  0  0  0  0  0  0  0  0  0
   -4.0009   12.2118   -6.3998 C   0  0  0  0  0  0  0  0  0  0  0  0
   -6.2437   11.3863   -5.6898 N   0  0  0  0  0  0  0  0  0  0  0  0
   -7.2223   12.7062   -3.6774 C   0  0  0  0  0  0  0  0  0  0  0  0
   -8.3649   13.1294   -3.1829 N   0  0  0  0  0  0  0  0  0  0  0  0
   -8.1960   11.0752   -6.6873 N   0  0  0  0  0  0  0  0  0  0  0  0
   -6.2547   10.0655   -7.8730 C   0  0  2  0  0  0  0  0  0  0  0  0
   -5.4140   10.9870   -8.5900 O   0  0  0  0  0  0  0  0  0  0  0  0
   -7.3773    9.4375   -8.6944 C   0  0  1  0  0  0  0  0  0  0  0  0
   -7.9770   10.2366   -9.8673 C   0  0  0  0  0  0  0  0  0  0  0  0
  -10.7165   13.4987   -3.1047 C   0  0  0  0  0  0  0  0  0  0  0  0
  -12.0044   13.5071   -3.5880 N   0  0  0  0  0  0  0  0  0  0  0  0
  -13.9500   14.1578   -2.5484 O   0  0  0  0  0  0  0  0  0  0  0  0
  -11.8845   14.2549   -1.5420 O   0  0  0  0  0  0  0  0  0  0  0  0
  -10.7558   13.9327   -1.8786 N   0  0  0  0  0  0  0  0  0  0  0  0
   -4.3055   11.6724    0.4284 Cl  0  0  0  0  0  0  0  0  0  0  0  0
   -4.1401   14.3583   -2.3981 N   0  0  0  0  0  0  0  0  0  0  0  0
  2  1  1  6
  2  3  1  0
  3  4  1  0
  5  4  1  1
  5  6  1  0
  6  7  1  0
  2  7  1  0
  5  8  1  0
 10 11  2  0
 11 12  1  0
  9 12  2  0
 14 15  1  0
 18 19  2  0
 19 20  1  0
 20 21  2  0
 18 22  1  0
  8 23  1  6
  9 24  1  0
 13 24  1  0
  8 24  1  0
 18 25  1  0
  9 25  1  0
 10 26  1  0
 25 26  2  0
 12 27  1  0
 13 27  2  0
 13 28  1  0
 28 29  1  6
 14 29  1  0
 30 16  1  6
 28 30  1  0
 16 31  1  0
 30 31  1  0
 10 32  1  0
 17 33  1  0
 32 33  1  0
 17 34  2  0
 17 35  1  0
 35 36  1  0
 32 36  2  0
 20 37  1  0
 21 38  1  0
 22 38  2  0
M  END
