
     RDKit          3D

 33 36  0  0  0  0  0  0  0  0999 V2000
   -3.8450    3.1231   14.4502 C   0  0  0  0  0  0  0  0  0  0  0  0
   -4.5426    2.4465   15.4547 C   0  0  0  0  0  0  0  0  0  0  0  0
   -5.6789    3.0319   16.0143 C   0  0  0  0  0  0  0  0  0  0  0  0
   -6.5550    2.1785   17.2980 S   0  0  0  0  0  6  0  0  0  0  0  0
   -7.7970    1.6788   16.7574 O   0  0  0  0  0  0  0  0  0  0  0  0
   -6.4947    2.9763   18.4987 O   0  0  0  0  0  0  0  0  0  0  0  0
   -6.1084    4.2899   15.5926 C   0  0  0  0  0  0  0  0  0  0  0  0
   -5.4057    4.9580   14.5832 C   0  0  0  0  0  0  0  0  0  0  0  0
   -4.2720    4.3819   14.0026 C   0  0  0  0  0  0  0  0  0  0  0  0
   -3.5054    4.9936   12.9898 N   0  0  0  0  0  0  0  0  0  0  0  0
   -3.1560    6.3354   12.8857 C   0  0  0  0  0  0  0  0  0  0  0  0
   -3.8898    7.2380   12.4950 O   0  0  0  0  0  0  0  0  0  0  0  0
   -1.6989    6.5983   13.3068 C   0  0  0  0  0  0  0  0  0  0  0  0
   -1.3678    8.0293   13.2586 N   0  0  0  0  0  0  0  0  0  0  0  0
   -2.0166    8.7662   14.3586 C   0  0  0  0  0  0  0  0  0  0  0  0
   -1.3402   10.1094   14.7447 C   0  0  0  0  0  0  0  0  0  0  0  0
    0.0633    8.3274   13.2136 C   0  0  0  0  0  0  0  0  0  0  0  0
    0.3433    9.8484   13.0442 C   0  0  0  0  0  0  0  0  0  0  0  0
   -0.6902   10.7608   13.5965 N   0  0  0  0  0  0  0  0  0  0  0  0
   -0.1284   12.1003   13.9267 C   0  0  0  0  0  0  0  0  0  0  0  0
    0.6260   12.1392   15.2636 C   0  0  0  0  0  0  0  0  0  0  0  0
    1.6055   11.1847   15.5874 C   0  0  0  0  0  0  0  0  0  0  0  0
    2.2929   11.2471   16.8001 C   0  0  0  0  0  0  0  0  0  0  0  0
    2.0208   12.2717   17.7032 C   0  0  0  0  0  0  0  0  0  0  0  0
    1.0634   13.2349   17.3942 C   0  0  0  0  0  0  0  0  0  0  0  0
    0.3710   13.1715   16.1829 C   0  0  0  0  0  0  0  0  0  0  0  0
    0.7631   12.6814   12.8217 C   0  0  0  0  0  0  0  0  0  0  0  0
    1.9587   13.3385   13.1590 C   0  0  0  0  0  0  0  0  0  0  0  0
    2.7898   13.8617   12.1667 C   0  0  0  0  0  0  0  0  0  0  0  0
    2.4417   13.7320   10.8240 C   0  0  0  0  0  0  0  0  0  0  0  0
    1.2637   13.0779   10.4714 C   0  0  0  0  0  0  0  0  0  0  0  0
    0.4316   12.5538   11.4617 C   0  0  0  0  0  0  0  0  0  0  0  0
   -5.5810    0.8240   17.5241 N   0  0  0  0  0  0  0  0  0  0  0  0
  1  2  4  0
  2  3  4  0
  3  4  1  0
  4  5  2  0
  4  6  2  0
  3  7  4  0
  7  8  4  0
  8  9  4  0
  1  9  4  0
  9 10  1  0
 10 11  1  0
 11 12  2  0
 11 13  1  0
 13 14  1  0
 14 15  1  0
 15 16  1  0
 14 17  1  0
 17 18  1  0
 16 19  1  0
 18 19  1  0
 19 20  1  0
 20 21  1  0
 21 22  4  0
 22 23  4  0
 23 24  4  0
 24 25  4  0
 21 26  4  0
 25 26  4  0
 20 27  1  0
 27 28  4  0
 28 29  4  0
 29 30  4  0
 30 31  4  0
 31 32  4  0
 27 32  4  0
  4 33  1  0
M  END
