8AIE_M7L_B_301
     RDKit          3D

 39 39  0  0  0  0  0  0  0  0999 V2000
    2.1312   -1.6019   -4.6872 C   0  0  0  0  0  0  0  0  0  0  0  0
    4.4061   -2.1512   -4.2954 C   0  0  0  0  0  0  0  0  0  0  0  0
    2.4790   -0.3495   -5.2143 C   0  0  0  0  0  0  0  0  0  0  0  0
    4.2641    1.4257   -5.6396 C   0  0  0  0  0  0  0  0  0  0  0  0
    3.8472    0.0378   -5.2079 C   0  0  0  0  0  0  0  0  0  0  0  0
    4.8223   -0.9124   -4.8085 C   0  0  0  0  0  0  0  0  0  0  0  0
    5.4066   -3.1656   -3.8318 C   0  0  0  0  0  0  0  0  0  0  0  0
    3.0851   -2.4558   -4.2448 N   0  0  0  0  0  0  0  0  0  0  0  0
    6.1956   -0.6688   -4.9224 O   0  0  0  0  0  0  0  0  0  0  0  0
    5.2512    1.9474   -4.6978 N   0  0  0  0  0  0  0  0  0  0  0  0
    1.3632    0.5254   -5.7581 C   0  0  0  0  0  0  0  0  0  0  0  0
    1.7617    1.8794   -5.8147 O   0  0  0  0  0  0  0  0  0  0  0  0
    3.3923    1.9719   -6.3182 P   0  0  2  0  0  5  0  0  0  0  0  0
    4.2143    0.5568   -5.8839 O   0  0  0  0  0  0  0  0  0  0  0  0
    4.0480    3.1500   -5.6347 O   0  0  0  0  0  0  0  0  0  0  0  0
    3.4826    2.1861   -7.9955 O   0  0  0  0  0  0  0  0  0  0  0  0
    5.5238    1.4550   -3.5232 C   0  0  0  0  0  0  0  0  0  0  0  0
    6.5207    2.1558   -2.6928 C   0  0  0  0  0  0  0  0  0  0  0  0
    4.7756    0.2666   -2.9677 C   0  0  0  0  0  0  0  0  0  0  0  0
    7.4827    1.5268   -2.1755 O   0  0  0  0  0  0  0  0  0  0  0  0
    6.3960    3.5243   -2.4693 O   0  0  0  0  0  0  0  0  0  0  0  0
    5.4271   -0.1811   -1.8062 O   0  0  0  0  0  0  0  0  0  0  0  0
    6.7450    0.0937   -1.9811 N   0  0  0  0  0  0  0  0  0  0  0  0
    1.0938   -1.9083   -4.6408 H   0  0  0  0  0  0  0  0  0  0  0  0
    4.6739    1.4028   -6.6703 H   0  0  0  0  0  0  0  0  0  0  0  0
    3.3954    2.1112   -5.7029 H   0  0  0  0  0  0  0  0  0  0  0  0
    4.8941   -4.0494   -3.3956 H   0  0  0  0  0  0  0  0  0  0  0  0
    6.0254   -3.5012   -4.6905 H   0  0  0  0  0  0  0  0  0  0  0  0
    6.0641   -2.7209   -3.0553 H   0  0  0  0  0  0  0  0  0  0  0  0
    6.5894    0.1109   -5.4312 H   0  0  0  0  0  0  0  0  0  0  0  0
    1.1605    0.1907   -6.7970 H   0  0  0  0  0  0  0  0  0  0  0  0
    0.3955    0.4121   -5.2282 H   0  0  0  0  0  0  0  0  0  0  0  0
    5.1188    0.6600   -6.2737 H   0  0  0  0  0  0  0  0  0  0  0  0
    2.9783    3.0201   -8.1722 H   0  0  0  0  0  0  0  0  0  0  0  0
    3.7234    0.5548   -2.7455 H   0  0  0  0  0  0  0  0  0  0  0  0
    4.7393   -0.5473   -3.7268 H   0  0  0  0  0  0  0  0  0  0  0  0
    7.0668    4.0210   -1.8953 H   0  0  0  0  0  0  0  0  0  0  0  0
    7.0434    0.6705   -1.1626 H   0  0  0  0  0  0  0  0  0  0  0  0
    7.2546   -0.8154   -1.9059 H   0  0  0  0  0  0  0  0  0  0  0  0
  1  3  4  0
  3  5  4  0
  4  5  1  0
  2  6  4  0
  5  6  4  0
  2  7  1  0
  2  8  4  0
  1  8  4  0
  6  9  1  0
  4 10  1  0
  3 11  1  0
 11 12  1  0
 13 12  1  1
 13 14  1  0
 13 15  2  0
 13 16  1  0
 10 17  2  3
 17 18  1  0
 17 19  1  0
 18 20  2  0
 18 21  1  0
 19 22  1  0
 22 23  1  0
  1 24  1  0
  4 25  1  0
  4 26  1  0
  7 27  1  0
  7 28  1  0
  7 29  1  0
  9 30  1  0
 11 31  1  0
 11 32  1  0
 14 33  1  0
 16 34  1  0
 19 35  1  0
 19 36  1  0
 21 37  1  0
 23 38  1  0
 23 39  1  0
M  END
