8G43_ZU6_A_1304
     RDKit          3D

 21 22  0  0  0  0  0  0  0  0999 V2000
    0.9633    0.2610   10.1254 C   0  0  0  0  0  0  0  0  0  0  0  0
    1.2911    1.2059    9.1837 C   0  0  0  0  0  0  0  0  0  0  0  0
    0.5854    3.0200    7.7717 C   0  0  0  0  0  0  0  0  0  0  0  0
   -0.5684    3.1450    4.7069 O   0  0  0  0  0  0  0  0  0  0  0  0
   -0.1395    4.3099    4.9329 C   0  0  0  0  0  0  0  0  0  0  0  0
    0.2224    5.2076    3.8780 N   0  0  0  0  0  0  0  0  0  0  0  0
   -0.0336    4.8233    2.4813 C   0  0  0  0  0  0  0  0  0  0  0  0
    0.0186    4.8299    6.3379 C   0  0  0  0  0  0  0  0  0  0  0  0
   -0.3887    3.8624    7.3078 N   0  0  0  0  0  0  0  0  0  0  0  0
    1.7696    3.1082    7.3421 O   0  0  0  0  0  0  0  0  0  0  0  0
    0.3157    2.0523    8.7164 C   0  0  0  0  0  0  0  0  0  0  0  0
   -0.3168    0.1687   10.5876 C   0  0  0  0  0  0  0  0  0  0  0  0
   -1.2923    1.0230   10.1131 C   0  0  0  0  0  0  0  0  0  0  0  0
   -0.9862    1.9777    9.1690 C   0  0  0  0  0  0  0  0  0  0  0  0
   -1.9230    2.8145    8.6986 N   0  0  0  0  0  0  0  0  0  0  0  0
   -1.6663    3.7588    7.7784 C   0  0  0  0  0  0  0  0  0  0  0  0
   -2.7136    4.6659    7.2728 C   0  0  0  0  0  0  0  0  0  0  0  0
   -4.0825    4.4189    7.8447 C   0  0  0  0  0  0  0  0  0  0  0  0
   -5.1074    5.2884    7.2255 C   0  0  0  0  0  0  0  0  0  0  0  0
   -4.9233    6.6692    7.3664 O   0  0  0  0  0  0  0  0  0  0  0  0
   -6.1051    4.9080    6.5992 O   0  0  0  0  0  0  0  0  0  0  0  0
  1  2  2  0
  4  5  2  0
  5  6  1  0
  6  7  1  0
  5  8  1  0
  3  9  1  0
  8  9  1  0
  3 10  2  0
  2 11  1  0
  3 11  1  0
  1 12  1  0
 12 13  2  0
 13 14  1  0
 11 14  2  0
 14 15  1  0
 15 16  2  0
  9 16  1  0
 16 17  1  0
 17 18  1  0
 18 19  1  0
 19 20  1  0
 19 21  2  0
M  END
$$$$
