1IG3_VIB_B_501
     RDKit          3D

 18 19  0  0  0  0  0  0  0  0999 V2000
    8.0093   78.2532   16.7269 C   0  0  0  0  0  0  0  0  0  0  0  0
    8.0540   75.0787   20.3705 N   0  0  0  0  0  0  0  0  0  0  0  0
    4.2397   72.4184   21.9462 C   0  0  0  0  0  0  0  0  0  0  0  0
    6.6894   68.3085   19.9477 O   0  0  0  0  0  0  0  0  0  0  0  0
    6.4563   68.6806   21.2727 C   0  0  0  0  0  0  0  0  0  0  0  0
    5.3303   69.6639   21.2708 C   0  0  0  0  0  0  0  0  0  0  0  0
    6.3504   72.8364   18.9172 C   0  0  0  0  0  0  0  0  0  0  0  0
    6.6247   70.9910   19.0688 S   0  0  0  0  0  0  0  0  0  0  0  0
    5.6108   70.9210   20.5292 C   0  0  0  0  0  0  0  0  0  0  0  0
    5.1836   72.2073   20.7587 C   0  0  0  0  0  0  0  0  0  0  0  0
    5.5737   73.1513   19.9298 N   0  0  0  0  0  0  0  0  0  0  0  0
    5.1718   74.5740   20.1240 C   0  0  0  0  0  0  0  0  0  0  0  0
    7.2664   75.7438   19.4101 C   0  0  0  0  0  0  0  0  0  0  0  0
    7.8957   76.6126   18.5999 N   0  0  0  0  0  0  0  0  0  0  0  0
    7.3222   77.2975   17.6278 C   0  0  0  0  0  0  0  0  0  0  0  0
    5.9922   77.1044   17.4357 N   0  0  0  0  0  0  0  0  0  0  0  0
    5.3051   76.2364   18.2274 C   0  0  0  0  0  0  0  0  0  0  0  0
    5.8935   75.5159   19.2478 C   0  0  0  0  0  0  0  0  0  0  0  0
  4  5  1  0
  5  6  1  0
  7  8  1  0
  6  9  1  0
  8  9  1  0
  3 10  1  0
  9 10  2  0
  7 11  2  0
 10 11  1  0
 11 12  1  0
  2 13  1  0
 13 14  2  0
  1 15  1  0
 14 15  1  0
 15 16  2  0
 16 17  1  0
 12 18  1  0
 13 18  1  0
 17 18  2  0
M  CHG  1  11   1
M  END
$$$$
