1IG3_VIB_B_501
     RDKit          3D

 18 19  0  0  0  0  0  0  0  0999 V2000
    7.4632   42.1704   35.6765 C   0  0  0  0  0  0  0  0  0  0  0  0
    6.6452   44.9278   31.7928 N   0  0  0  0  0  0  0  0  0  0  0  0
    6.7189   49.4163   31.1606 C   0  0  0  0  0  0  0  0  0  0  0  0
    1.9174   51.3057   30.1499 O   0  0  0  0  0  0  0  0  0  0  0  0
    2.3034   50.2716   31.0045 C   0  0  0  0  0  0  0  0  0  0  0  0
    3.7978   50.2420   31.0261 C   0  0  0  0  0  0  0  0  0  0  0  0
    4.9400   47.4132   33.7351 C   0  0  0  0  0  0  0  0  0  0  0  0
    3.4171   48.3226   33.1371 S   0  0  0  0  0  0  0  0  0  0  0  0
    4.3812   49.2410   31.9571 C   0  0  0  0  0  0  0  0  0  0  0  0
    5.6782   48.8109   32.1072 C   0  0  0  0  0  0  0  0  0  0  0  0
    5.9289   47.8896   33.0121 N   0  0  0  0  0  0  0  0  0  0  0  0
    7.3127   47.3878   33.2507 C   0  0  0  0  0  0  0  0  0  0  0  0
    7.0117   44.9047   33.1530 C   0  0  0  0  0  0  0  0  0  0  0  0
    7.0557   43.7027   33.7533 N   0  0  0  0  0  0  0  0  0  0  0  0
    7.4070   43.4924   35.0084 C   0  0  0  0  0  0  0  0  0  0  0  0
    7.7505   44.5794   35.7456 N   0  0  0  0  0  0  0  0  0  0  0  0
    7.7235   45.8208   35.1882 C   0  0  0  0  0  0  0  0  0  0  0  0
    7.3564   46.0533   33.8777 C   0  0  0  0  0  0  0  0  0  0  0  0
  4  5  1  0
  5  6  1  0
  7  8  1  0
  6  9  1  0
  8  9  1  0
  3 10  1  0
  9 10  2  0
  7 11  2  0
 10 11  1  0
 11 12  1  0
  2 13  1  0
 13 14  2  0
  1 15  1  0
 14 15  1  0
 15 16  2  0
 16 17  1  0
 12 18  1  0
 13 18  1  0
 17 18  2  0
M  CHG  1  11   1
M  END
$$$$
