1IG3_VIB_B_501
     RDKit          3D

 18 19  0  0  0  0  0  0  0  0999 V2000
   30.3035   63.9084   33.9795 C   0  0  0  0  0  0  0  0  0  0  0  0
   27.5479   60.0770   35.0200 N   0  0  0  0  0  0  0  0  0  0  0  0
   25.1571   57.2469   31.8315 C   0  0  0  0  0  0  0  0  0  0  0  0
   21.6228   55.5499   35.3400 O   0  0  0  0  0  0  0  0  0  0  0  0
   22.4297   56.6881   35.3834 C   0  0  0  0  0  0  0  0  0  0  0  0
   23.2601   56.6966   34.1404 C   0  0  0  0  0  0  0  0  0  0  0  0
   25.7812   59.8968   34.3600 C   0  0  0  0  0  0  0  0  0  0  0  0
   24.4557   59.0196   35.3487 S   0  0  0  0  0  0  0  0  0  0  0  0
   24.2294   57.8200   34.0543 C   0  0  0  0  0  0  0  0  0  0  0  0
   25.1128   58.1627   33.0583 C   0  0  0  0  0  0  0  0  0  0  0  0
   25.8809   59.2148   33.2407 N   0  0  0  0  0  0  0  0  0  0  0  0
   26.8479   59.6640   32.1983 C   0  0  0  0  0  0  0  0  0  0  0  0
   28.0314   60.9276   34.0062 C   0  0  0  0  0  0  0  0  0  0  0  0
   28.8404   61.9319   34.3859 N   0  0  0  0  0  0  0  0  0  0  0  0
   29.4065   62.8017   33.5699 C   0  0  0  0  0  0  0  0  0  0  0  0
   29.1482   62.6656   32.2441 N   0  0  0  0  0  0  0  0  0  0  0  0
   28.3356   61.6663   31.8040 C   0  0  0  0  0  0  0  0  0  0  0  0
   27.7368   60.7520   32.6477 C   0  0  0  0  0  0  0  0  0  0  0  0
  4  5  1  0
  5  6  1  0
  7  8  1  0
  6  9  1  0
  8  9  1  0
  3 10  1  0
  9 10  2  0
  7 11  2  0
 10 11  1  0
 11 12  1  0
  2 13  1  0
 13 14  2  0
  1 15  1  0
 14 15  1  0
 15 16  2  0
 16 17  1  0
 12 18  1  0
 13 18  1  0
 17 18  2  0
M  CHG  1  11   1
M  END
$$$$
