1IG3_VIB_B_501
     RDKit          3D

 18 19  0  0  0  0  0  0  0  0999 V2000
    3.2099   55.1347   31.8423 C   0  0  0  0  0  0  0  0  0  0  0  0
    5.8340   51.2611   30.6322 N   0  0  0  0  0  0  0  0  0  0  0  0
    5.9287   47.0526   32.0141 C   0  0  0  0  0  0  0  0  0  0  0  0
   10.5077   45.9178   34.3424 O   0  0  0  0  0  0  0  0  0  0  0  0
    9.7302   47.0728   34.4430 C   0  0  0  0  0  0  0  0  0  0  0  0
    8.4998   46.8579   33.6216 C   0  0  0  0  0  0  0  0  0  0  0  0
    6.1655   50.1822   34.0027 C   0  0  0  0  0  0  0  0  0  0  0  0
    7.7702   49.4526   34.6321 S   0  0  0  0  0  0  0  0  0  0  0  0
    7.5338   47.9871   33.6513 C   0  0  0  0  0  0  0  0  0  0  0  0
    6.3467   48.1643   32.9811 C   0  0  0  0  0  0  0  0  0  0  0  0
    5.6792   49.2803   33.1794 N   0  0  0  0  0  0  0  0  0  0  0  0
    4.3731   49.5372   32.5073 C   0  0  0  0  0  0  0  0  0  0  0  0
    4.8011   51.7642   31.4477 C   0  0  0  0  0  0  0  0  0  0  0  0
    4.5032   53.0689   31.3205 N   0  0  0  0  0  0  0  0  0  0  0  0
    3.5483   53.6982   31.9801 C   0  0  0  0  0  0  0  0  0  0  0  0
    2.8122   52.9645   32.8536 N   0  0  0  0  0  0  0  0  0  0  0  0
    3.0710   51.6390   33.0221 C   0  0  0  0  0  0  0  0  0  0  0  0
    4.0677   50.9704   32.3394 C   0  0  0  0  0  0  0  0  0  0  0  0
  4  5  1  0
  5  6  1  0
  7  8  1  0
  6  9  1  0
  8  9  1  0
  3 10  1  0
  9 10  2  0
  7 11  2  0
 10 11  1  0
 11 12  1  0
  2 13  1  0
 13 14  2  0
  1 15  1  0
 14 15  1  0
 15 16  2  0
 16 17  1  0
 12 18  1  0
 13 18  1  0
 17 18  2  0
M  CHG  1  11   1
M  END
$$$$
