1N1M_A3M_A_954
     RDKit          3D

 12 12  0  0  0  0  0  0  0  0999 V2000
   99.8897   67.4530   98.6985 C   0  0  0  0  0  0  0  0  0  0  0  0
  101.2600   67.2101   99.4970 C   0  0  0  0  0  0  0  0  0  0  0  0
  102.0812   68.3980   99.2056 N   0  0  0  0  0  0  0  0  0  0  0  0
  101.6716   68.8089   97.8423 C   0  0  0  0  0  0  0  0  0  0  0  0
  100.1302   68.8573   97.9834 C   0  0  0  0  0  0  0  0  0  0  0  0
  103.5106   68.1910   99.4334 C   0  0  0  0  0  0  0  0  0  0  0  0
  104.1597   67.8157  100.6975 C   0  0  2  0  0  0  0  0  0  0  0  0
  104.6318   68.9100  101.6113 C   0  0  1  0  0  0  0  0  0  0  0  0
  103.5606   69.7153  102.2189 C   0  0  0  0  0  0  0  0  0  0  0  0
  104.3532   68.3559   98.3591 O   0  0  0  0  0  0  0  0  0  0  0  0
  105.3279   66.9053  100.4602 N   0  0  0  0  0  0  0  0  0  0  0  0
  105.4864   68.2567  102.9173 C   0  0  0  0  0  0  0  0  0  0  0  0
  1  2  1  0
  2  3  1  0
  3  4  1  0
  1  5  1  0
  4  5  1  0
  3  6  1  0
  6  7  1  0
  7  8  1  0
  8  9  1  1
  6 10  2  0
  7 11  1  6
  8 12  1  0
M  END
