1HWI_115_B_1
     RDKit          3D

 30 32  0  0  0  0  0  0  0  0999 V2000
   30.6468   -3.7675   12.7713 C   0  0  0  0  0  0  0  0  0  0  0  0
   31.3939   -3.8825   13.9252 C   0  0  0  0  0  0  0  0  0  0  0  0
   31.9915   -5.1207   14.2472 C   0  0  0  0  0  0  0  0  0  0  0  0
   31.8198   -6.2273   13.3851 C   0  0  0  0  0  0  0  0  0  0  0  0
   31.0594   -6.0901   12.2128 C   0  0  0  0  0  0  0  0  0  0  0  0
   30.4673   -4.8571   11.8995 C   0  0  0  0  0  0  0  0  0  0  0  0
   30.1167   -2.3598   12.6612 C   0  0  0  0  0  0  0  0  0  0  0  0
   30.6240   -1.8008   13.7801 C   0  0  0  0  0  0  0  0  0  0  0  0
   31.4161   -2.7539   14.5568 N   0  0  0  0  0  0  0  0  0  0  0  0
   27.6221   -2.0396    9.7868 C   0  0  0  0  0  0  0  0  0  0  0  0
   28.4294   -2.5972   10.7824 C   0  0  0  0  0  0  0  0  0  0  0  0
   29.2461   -1.7691   11.5622 C   0  0  0  0  0  0  0  0  0  0  0  0
   29.2486   -0.3830   11.3408 C   0  0  0  0  0  0  0  0  0  0  0  0
   28.4414    0.1724   10.3454 C   0  0  0  0  0  0  0  0  0  0  0  0
   27.6272   -0.6596    9.5699 C   0  0  0  0  0  0  0  0  0  0  0  0
   26.8318   -0.1211    8.5998 F   0  0  0  0  0  0  0  0  0  0  0  0
   29.3202    7.0310   13.7249 O   0  0  0  0  0  0  0  0  0  0  0  0
   27.7747    6.2058   12.2576 O   0  0  0  0  0  0  0  0  0  0  0  0
   29.2410    4.1431   14.8072 O   0  0  0  0  0  0  0  0  0  0  0  0
   28.9574    6.1677   12.9347 C   0  0  0  0  0  0  0  0  0  0  0  0
   29.7951    4.9412   12.5962 C   0  0  0  0  0  0  0  0  0  0  0  0
   29.4913    3.7077   13.4631 C   0  0  1  0  0  0  0  0  0  0  0  0
   30.6825    2.7396   13.4738 C   0  0  0  0  0  0  0  0  0  0  0  0
   30.7894    1.9261   14.7671 C   0  0  1  0  0  0  0  0  0  0  0  0
   31.2096    0.5041   14.4718 C   0  0  0  0  0  0  0  0  0  0  0  0
   30.3890   -0.4879   14.0832 C   0  0  0  0  0  0  0  0  0  0  0  0
   32.0621   -2.4311   15.8943 C   0  0  1  0  0  0  0  0  0  0  0  0
   31.9662   -3.5924   16.8885 C   0  0  0  0  0  0  0  0  0  0  0  0
   33.5247   -1.9818   15.7063 C   0  0  0  0  0  0  0  0  0  0  0  0
   31.7323    2.5891   15.5923 O   0  0  0  0  0  0  0  0  0  0  0  0
  1  2  1  0
  2  3  2  0
  3  4  1  0
  4  5  2  0
  1  6  2  0
  5  6  1  0
  1  7  1  0
  7  8  2  0
  8  9  1  0
  2  9  1  0
 10 11  2  0
  7 12  1  0
 11 12  1  0
 12 13  2  0
 13 14  1  0
 14 15  2  0
 10 15  1  0
 15 16  1  0
 17 20  2  0
 18 20  1  0
 20 21  1  0
 21 22  1  0
 22 19  1  1
 22 23  1  0
 23 24  1  0
 24 25  1  0
 25 26  2  0
  8 26  1  0
  9 27  1  0
 27 28  1  1
 27 29  1  0
 24 30  1  1
M  END
