1Q41_IXM_A_451
     RDKit          3D

 21 24  0  0  0  0  0  0  0  0999 V2000
   22.3536  -10.0591   18.1337 C   0  0  0  0  0  0  0  0  0  0  0  0
   22.0434  -10.2025   16.6837 C   0  0  0  0  0  0  0  0  0  0  0  0
   21.2258  -10.4574   18.7882 C   0  0  0  0  0  0  0  0  0  0  0  0
   20.2178  -10.8449   17.8641 N   0  0  0  0  0  0  0  0  0  0  0  0
   21.2527  -10.4187   20.1768 C   0  0  0  0  0  0  0  0  0  0  0  0
   22.3643   -9.9984   20.8650 C   0  0  0  0  0  0  0  0  0  0  0  0
   23.5018   -9.5967   20.1974 C   0  0  0  0  0  0  0  0  0  0  0  0
   23.4692   -9.6372   18.8246 C   0  0  0  0  0  0  0  0  0  0  0  0
   20.7006  -10.6967   16.5070 C   0  0  0  0  0  0  0  0  0  0  0  0
   19.9465  -10.9935   15.4793 C   0  0  0  0  0  0  0  0  0  0  0  0
   18.5363  -11.4493   15.5926 C   0  0  0  0  0  0  0  0  0  0  0  0
   18.0024  -11.6871   14.2987 N   0  0  0  0  0  0  0  0  0  0  0  0
   19.0203  -11.3995   13.3683 C   0  0  0  0  0  0  0  0  0  0  0  0
   20.1736  -10.9891   14.0476 C   0  0  0  0  0  0  0  0  0  0  0  0
   18.9701  -11.4831   11.9913 C   0  0  0  0  0  0  0  0  0  0  0  0
   20.0583  -11.1639   11.2377 C   0  0  0  0  0  0  0  0  0  0  0  0
   21.1963  -10.7604   11.8760 C   0  0  0  0  0  0  0  0  0  0  0  0
   21.2345  -10.6802   13.2659 C   0  0  0  0  0  0  0  0  0  0  0  0
   17.8416  -11.6262   16.6246 O   0  0  0  0  0  0  0  0  0  0  0  0
   22.9035   -9.9063   15.8178 N   0  0  0  0  0  0  0  0  0  0  0  0
   24.1662   -9.4850   15.9636 O   0  0  0  0  0  0  0  0  0  0  0  0
  1  2  1  0
  1  3  2  0
  3  4  1  0
  3  5  1  0
  5  6  2  0
  6  7  1  0
  1  8  1  0
  7  8  2  0
  2  9  1  0
  4  9  1  0
  9 10  2  0
 10 11  1  0
 11 12  1  0
 12 13  1  0
 10 14  1  0
 13 14  2  0
 13 15  1  0
 15 16  2  0
 16 17  1  0
 14 18  1  0
 17 18  2  0
 11 19  2  0
  2 20  2  0
 20 21  1  0
M  END
$$$$
