1Q41_IXM_A_451
     RDKit          3D

 21 24  0  0  0  0  0  0  0  0999 V2000
   40.1362    4.0606   35.2477 C   0  0  0  0  0  0  0  0  0  0  0  0
   39.5846    5.4432   35.1858 C   0  0  0  0  0  0  0  0  0  0  0  0
   40.6432    3.9272   36.5063 C   0  0  0  0  0  0  0  0  0  0  0  0
   40.4566    5.1217   37.2535 N   0  0  0  0  0  0  0  0  0  0  0  0
   41.2264    2.7077   36.8278 C   0  0  0  0  0  0  0  0  0  0  0  0
   41.2919    1.6784   35.9210 C   0  0  0  0  0  0  0  0  0  0  0  0
   40.7773    1.8196   34.6497 C   0  0  0  0  0  0  0  0  0  0  0  0
   40.2020    3.0274   34.3377 C   0  0  0  0  0  0  0  0  0  0  0  0
   39.7830    6.1166   36.4451 C   0  0  0  0  0  0  0  0  0  0  0  0
   39.5009    7.3031   36.9199 C   0  0  0  0  0  0  0  0  0  0  0  0
   40.0264    7.8245   38.2087 C   0  0  0  0  0  0  0  0  0  0  0  0
   39.5335    9.1369   38.4333 N   0  0  0  0  0  0  0  0  0  0  0  0
   38.7151    9.4684   37.3357 C   0  0  0  0  0  0  0  0  0  0  0  0
   38.6848    8.3981   36.4337 C   0  0  0  0  0  0  0  0  0  0  0  0
   38.0191   10.6389   37.1094 C   0  0  0  0  0  0  0  0  0  0  0  0
   37.2689   10.7922   35.9835 C   0  0  0  0  0  0  0  0  0  0  0  0
   37.2224    9.7628   35.0872 C   0  0  0  0  0  0  0  0  0  0  0  0
   37.9291    8.5868   35.3268 C   0  0  0  0  0  0  0  0  0  0  0  0
   40.7904    7.2670   39.0361 O   0  0  0  0  0  0  0  0  0  0  0  0
   39.0425    5.8642   34.1342 N   0  0  0  0  0  0  0  0  0  0  0  0
   38.8092    5.2395   32.9729 O   0  0  0  0  0  0  0  0  0  0  0  0
  1  2  1  0
  1  3  2  0
  3  4  1  0
  3  5  1  0
  5  6  2  0
  6  7  1  0
  1  8  1  0
  7  8  2  0
  2  9  1  0
  4  9  1  0
  9 10  2  0
 10 11  1  0
 11 12  1  0
 12 13  1  0
 10 14  1  0
 13 14  2  0
 13 15  1  0
 15 16  2  0
 16 17  1  0
 14 18  1  0
 17 18  2  0
 11 19  2  0
  2 20  2  0
 20 21  1  0
M  END
$$$$
