1Q41_IXM_A_451
     RDKit          3D

 21 24  0  0  0  0  0  0  0  0999 V2000
   40.0733    4.0910   35.2450 C   0  0  0  0  0  0  0  0  0  0  0  0
   39.5387    5.4808   35.1985 C   0  0  0  0  0  0  0  0  0  0  0  0
   40.5636    3.9319   36.5072 C   0  0  0  0  0  0  0  0  0  0  0  0
   40.3823    5.1168   37.2709 N   0  0  0  0  0  0  0  0  0  0  0  0
   41.1286    2.7007   36.8163 C   0  0  0  0  0  0  0  0  0  0  0  0
   41.1928    1.6849   35.8942 C   0  0  0  0  0  0  0  0  0  0  0  0
   40.6951    1.8520   34.6194 C   0  0  0  0  0  0  0  0  0  0  0  0
   40.1377    3.0714   34.3197 C   0  0  0  0  0  0  0  0  0  0  0  0
   39.7301    6.1320   36.4704 C   0  0  0  0  0  0  0  0  0  0  0  0
   39.4562    7.3143   36.9605 C   0  0  0  0  0  0  0  0  0  0  0  0
   39.9833    7.8144   38.2571 C   0  0  0  0  0  0  0  0  0  0  0  0
   39.5003    9.1275   38.4983 N   0  0  0  0  0  0  0  0  0  0  0  0
   38.6865    9.4799   37.4038 C   0  0  0  0  0  0  0  0  0  0  0  0
   38.6496    8.4220   36.4876 C   0  0  0  0  0  0  0  0  0  0  0  0
   38.0000   10.6587   37.1918 C   0  0  0  0  0  0  0  0  0  0  0  0
   37.2531   10.8329   36.0668 C   0  0  0  0  0  0  0  0  0  0  0  0
   37.2004    9.8159   35.1567 C   0  0  0  0  0  0  0  0  0  0  0  0
   37.8974    8.6313   35.3819 C   0  0  0  0  0  0  0  0  0  0  0  0
   40.7414    7.2400   39.0783 O   0  0  0  0  0  0  0  0  0  0  0  0
   39.0142    5.9246   34.1473 N   0  0  0  0  0  0  0  0  0  0  0  0
   38.6127    5.2808   33.0439 O   0  0  0  0  0  0  0  0  0  0  0  0
  1  2  1  0
  1  3  2  0
  3  4  1  0
  3  5  1  0
  5  6  2  0
  6  7  1  0
  1  8  1  0
  7  8  2  0
  2  9  1  0
  4  9  1  0
  9 10  2  0
 10 11  1  0
 11 12  1  0
 12 13  1  0
 10 14  1  0
 13 14  2  0
 13 15  1  0
 15 16  2  0
 16 17  1  0
 14 18  1  0
 17 18  2  0
 11 19  2  0
  2 20  2  0
 20 21  1  0
M  END
$$$$
