1Q41_IXM_A_451
     RDKit          3D

 21 24  0  0  0  0  0  0  0  0999 V2000
   24.7875  -18.5437    9.6207 C   0  0  0  0  0  0  0  0  0  0  0  0
   23.3510  -18.2108    9.4082 C   0  0  0  0  0  0  0  0  0  0  0  0
   25.1845  -19.1844    8.4846 C   0  0  0  0  0  0  0  0  0  0  0  0
   24.1084  -19.2859    7.5616 N   0  0  0  0  0  0  0  0  0  0  0  0
   26.5066  -19.6077    8.4257 C   0  0  0  0  0  0  0  0  0  0  0  0
   27.3795  -19.3926    9.4638 C   0  0  0  0  0  0  0  0  0  0  0  0
   26.9720  -18.7440   10.6102 C   0  0  0  0  0  0  0  0  0  0  0  0
   25.6637  -18.3278   10.6626 C   0  0  0  0  0  0  0  0  0  0  0  0
   22.9173  -18.6752    8.1140 C   0  0  0  0  0  0  0  0  0  0  0  0
   21.7934  -18.6460    7.4441 C   0  0  0  0  0  0  0  0  0  0  0  0
   21.5637  -19.3950    6.1810 C   0  0  0  0  0  0  0  0  0  0  0  0
   20.2470  -19.1507    5.7096 N   0  0  0  0  0  0  0  0  0  0  0  0
   19.6320  -18.2750    6.6257 C   0  0  0  0  0  0  0  0  0  0  0  0
   20.5299  -17.9672    7.6547 C   0  0  0  0  0  0  0  0  0  0  0  0
   18.3532  -17.7562    6.5878 C   0  0  0  0  0  0  0  0  0  0  0  0
   17.9175  -16.9151    7.5659 C   0  0  0  0  0  0  0  0  0  0  0  0
   18.7741  -16.5988    8.5815 C   0  0  0  0  0  0  0  0  0  0  0  0
   20.0619  -17.1286    8.6085 C   0  0  0  0  0  0  0  0  0  0  0  0
   22.3488  -20.1495    5.5538 O   0  0  0  0  0  0  0  0  0  0  0  0
   22.7005  -17.6076   10.2971 N   0  0  0  0  0  0  0  0  0  0  0  0
   23.0818  -17.1838   11.5088 O   0  0  0  0  0  0  0  0  0  0  0  0
  1  2  1  0
  1  3  2  0
  3  4  1  0
  3  5  1  0
  5  6  2  0
  6  7  1  0
  1  8  1  0
  7  8  2  0
  2  9  1  0
  4  9  1  0
  9 10  2  0
 10 11  1  0
 11 12  1  0
 12 13  1  0
 10 14  1  0
 13 14  2  0
 13 15  1  0
 15 16  2  0
 16 17  1  0
 14 18  1  0
 17 18  2  0
 11 19  2  0
  2 20  2  0
 20 21  1  0
M  END
$$$$
