8DP2_UMA_A_501
     RDKit          3D

 49 51  0  0  0  0  0  0  0  0999 V2000
   65.6050   -1.9420    3.0610 N   0  0  0  0  0  0  0  0  0  0  0  0
   66.8290   -2.3050    3.5880 C   0  0  0  0  0  0  0  0  0  0  0  0
   67.2380   -1.5620    4.6660 N   0  0  0  0  0  0  0  0  0  0  0  0
   66.5580   -0.5190    5.2550 C   0  0  0  0  0  0  0  0  0  0  0  0
   65.2920   -0.2030    4.6520 C   0  0  0  0  0  0  0  0  0  0  0  0
   64.8650   -0.9100    3.5950 C   0  0  0  0  0  0  0  0  0  0  0  0
   67.4830   -3.2480    3.1620 O   0  0  0  0  0  0  0  0  0  0  0  0
   67.0400    0.0410    6.2300 O   0  0  0  0  0  0  0  0  0  0  0  0
   65.0930   -2.7220    1.9420 C   0  0  1  0  0  0  0  0  0  0  0  0
   63.8780   -3.5550    2.3060 C   0  0  2  0  0  0  0  0  0  0  0  0
   64.2420   -4.7470    3.0030 O   0  0  0  0  0  0  0  0  0  0  0  0
   63.2760   -3.7910    0.9160 C   0  0  1  0  0  0  0  0  0  0  0  0
   63.6530   -2.5140    0.1530 C   0  0  2  0  0  0  0  0  0  0  0  0
   64.6180   -1.8200    0.9740 O   0  0  0  0  0  0  0  0  0  0  0  0
   63.8890   -4.9310    0.3130 O   0  0  0  0  0  0  0  0  0  0  0  0
   62.5170   -1.5740   -0.1780 C   0  0  0  0  0  0  0  0  0  0  0  0
   61.7290   -1.3830    1.0240 O   0  0  0  0  0  0  0  0  0  0  0  0
   61.2470    0.0380    1.5060 P   0  0  1  0  0  0  0  0  0  0  0  0
   60.2080   -0.1030    2.5400 O   0  0  0  0  0  0  0  0  0  0  0  0
   62.4350    0.9220    1.8200 O   0  0  0  0  0  0  0  0  0  0  0  0
   60.6160    0.6050    0.1620 O   0  0  0  0  0  0  0  0  0  0  0  0
   60.0310    2.0040   -0.2950 P   0  0  2  0  0  0  0  0  0  0  0  0
   60.8290    2.5390   -1.4490 O   0  0  0  0  0  0  0  0  0  0  0  0
   59.8630    2.9100    0.8930 O   0  0  0  0  0  0  0  0  0  0  0  0
   58.5800    1.6070   -0.9010 O   0  0  0  0  0  0  0  0  0  0  0  0
   57.5440    1.2980   -0.0050 C   0  0  2  0  0  0  0  0  0  0  0  0
   56.8300    0.0610   -0.5290 C   0  0  2  0  0  0  0  0  0  0  0  0
   57.7840   -1.0300   -0.6520 N   0  0  0  0  0  0  0  0  0  0  0  0
   57.7920   -2.1040    0.1450 C   0  0  0  0  0  0  0  0  0  0  0  0
   56.9780   -2.2500    1.0470 O   0  0  0  0  0  0  0  0  0  0  0  0
   58.8710   -3.1130   -0.1180 C   0  0  0  0  0  0  0  0  0  0  0  0
   56.2080    0.4130   -1.8810 C   0  0  1  0  0  0  0  0  0  0  0  0
   55.3930   -0.7010   -2.2710 O   0  0  0  0  0  0  0  0  0  0  0  0
   55.2240    1.5470   -1.6440 C   0  0  2  0  0  0  0  0  0  0  0  0
   54.5870    1.9300   -2.8580 O   0  0  0  0  0  0  0  0  0  0  0  0
   55.9460    2.7520   -1.0450 C   0  0  2  0  0  0  0  0  0  0  0  0
   56.6370    2.3750    0.1670 O   0  0  0  0  0  0  0  0  0  0  0  0
   54.9840    3.8590   -0.6610 C   0  0  0  0  0  0  0  0  0  0  0  0
   54.0810    3.4420    0.3760 O   0  0  0  0  0  0  0  0  0  0  0  0
   55.8740   -1.4780   -3.3820 C   0  0  1  0  0  0  0  0  0  0  0  0
   55.9270   -2.9450   -2.9830 C   0  0  0  0  0  0  0  0  0  0  0  0
   56.6450   -3.7260   -3.6030 O   0  0  0  0  0  0  0  0  0  0  0  0
   54.9130   -1.2780   -4.5320 C   0  0  0  0  0  0  0  0  0  0  0  0
   55.1790   -3.3060   -1.9320 N   0  0  0  0  0  0  0  0  0  0  0  0
   55.0760   -4.6860   -1.4810 C   0  0  2  0  0  0  0  0  0  0  0  0
   53.8890   -5.3910   -2.1170 C   0  0  0  0  0  0  0  0  0  0  0  0
   53.0040   -4.8120   -2.7260 O   0  0  0  0  0  0  0  0  0  0  0  0
   53.9040   -6.6860   -1.8830 O   0  0  0  0  0  0  0  0  0  0  0  0
   54.8980   -4.7390    0.0330 C   0  0  0  0  0  0  0  0  0  0  0  0
  1  2  1  0
  2  3  1  0
  3  4  1  0
  4  5  1  0
  1  6  1  0
  5  6  2  0
  2  7  2  0
  4  8  2  0
  9  1  1  1
  9 10  1  0
 10 11  1  6
 10 12  1  0
 12 13  1  0
  9 14  1  0
 13 14  1  0
 12 15  1  6
 13 16  1  1
 16 17  1  0
 17 18  1  0
 18 19  2  0
 18 20  1  1
 18 21  1  0
 21 22  1  0
 22 23  2  0
 22 24  1  1
 22 25  1  0
 26 25  1  6
 26 27  1  0
 27 28  1  6
 28 29  1  0
 29 30  2  0
 29 31  1  0
 27 32  1  0
 32 33  1  1
 32 34  1  0
 34 35  1  6
 34 36  1  0
 26 37  1  0
 36 37  1  0
 36 38  1  1
 38 39  1  0
 33 40  1  0
 40 41  1  0
 41 42  2  0
 40 43  1  6
 41 44  1  0
 44 45  1  0
 45 46  1  0
 46 47  2  0
 46 48  1  0
 45 49  1  1
M  END
$$$$
