8DP2_UMA_A_501
     RDKit          3D

 85 87  0  0  0  0  0  0  0  0999 V2000
    1.0668    3.3008    0.2667 N   0  0  0  0  0  0  0  0  0  0  0  0
    1.4215    3.8733    1.4635 C   0  0  0  0  0  0  0  0  0  0  0  0
    0.5947    3.7798    2.5428 N   0  0  0  0  0  0  0  0  0  0  0  0
   -0.5861    3.1144    2.4666 C   0  0  0  0  0  0  0  0  0  0  0  0
   -0.9584    2.5014    1.2738 C   0  0  0  0  0  0  0  0  0  0  0  0
   -0.1041    2.5962    0.1797 C   0  0  0  0  0  0  0  0  0  0  0  0
    2.5141    4.4913    1.5799 O   0  0  0  0  0  0  0  0  0  0  0  0
   -1.3416    3.0508    3.4738 O   0  0  0  0  0  0  0  0  0  0  0  0
    1.9591    3.3767   -0.9077 C   0  0  1  0  0  0  0  0  0  0  0  0
    2.7853    2.1062   -1.0425 C   0  0  2  0  0  0  0  0  0  0  0  0
    4.0196    2.2533   -0.3883 O   0  0  0  0  0  0  0  0  0  0  0  0
    2.9321    1.9324   -2.5456 C   0  0  1  0  0  0  0  0  0  0  0  0
    1.9731    2.9796   -3.1297 C   0  0  2  0  0  0  0  0  0  0  0  0
    1.2080    3.5379   -2.0870 O   0  0  0  0  0  0  0  0  0  0  0  0
    4.2438    2.1911   -2.9807 O   0  0  0  0  0  0  0  0  0  0  0  0
    1.0405    2.3937   -4.1947 C   0  0  0  0  0  0  0  0  0  0  0  0
    0.1841    1.4379   -3.6113 O   0  0  0  0  0  0  0  0  0  0  0  0
   -0.9532    0.9460   -4.7869 P   0  0  1  0  0  5  0  0  0  0  0  0
   -1.9538    2.0590   -5.0019 O   0  0  0  0  0  0  0  0  0  0  0  0
   -0.1857    0.5909   -6.2562 O   0  0  0  0  0  0  0  0  0  0  0  0
   -1.7992   -0.4364   -4.2698 O   0  0  0  0  0  0  0  0  0  0  0  0
   -0.6739   -1.5238   -3.5966 P   0  0  2  0  0  5  0  0  0  0  0  0
    0.6098   -1.5689   -4.4006 O   0  0  0  0  0  0  0  0  0  0  0  0
   -1.3682   -3.0680   -3.5924 O   0  0  0  0  0  0  0  0  0  0  0  0
   -0.3512   -1.0568   -1.9854 O   0  0  0  0  0  0  0  0  0  0  0  0
    0.6179   -1.9144   -1.4085 C   0  0  2  0  0  0  0  0  0  0  0  0
    0.1738   -2.2778    0.0390 C   0  0  2  0  0  0  0  0  0  0  0  0
   -1.2814   -2.1573    0.1819 N   0  0  0  0  0  0  0  0  0  0  0  0
   -2.1750   -3.2089   -0.2073 C   0  0  0  0  0  0  0  0  0  0  0  0
   -1.7233   -4.3222   -0.5905 O   0  0  0  0  0  0  0  0  0  0  0  0
   -3.6513   -3.0019   -0.1222 C   0  0  0  0  0  0  0  0  0  0  0  0
    0.8968   -1.4015    1.0696 C   0  0  1  0  0  0  0  0  0  0  0  0
    0.5372   -1.8234    2.3801 O   0  0  0  0  0  0  0  0  0  0  0  0
    2.4186   -1.5847    0.9137 C   0  0  2  0  0  0  0  0  0  0  0  0
    3.0609   -0.4792    1.4960 O   0  0  0  0  0  0  0  0  0  0  0  0
    2.8459   -1.7355   -0.5779 C   0  0  2  0  0  0  0  0  0  0  0  0
    1.8646   -1.2346   -1.4705 O   0  0  0  0  0  0  0  0  0  0  0  0
    3.2915   -3.1669   -0.9506 C   0  0  0  0  0  0  0  0  0  0  0  0
    4.4559   -3.5213   -0.2525 O   0  0  0  0  0  0  0  0  0  0  0  0
   -0.2259   -0.8708    3.1042 C   0  0  1  0  0  0  0  0  0  0  0  0
   -1.6494   -1.3452    3.2197 C   0  0  0  0  0  0  0  0  0  0  0  0
   -1.8894   -2.5799    3.3093 O   0  0  0  0  0  0  0  0  0  0  0  0
    0.3729   -0.7313    4.4998 C   0  0  0  0  0  0  0  0  0  0  0  0
   -2.7205   -0.3916    3.2813 N   0  0  0  0  0  0  0  0  0  0  0  0
   -4.1359   -0.7715    3.3074 C   0  0  2  0  0  0  0  0  0  0  0  0
   -4.8064   -0.3584    2.0285 C   0  0  0  0  0  0  0  0  0  0  0  0
   -5.8395   -0.9666    1.6384 O   0  0  0  0  0  0  0  0  0  0  0  0
   -4.3343    0.7313    1.3038 O   0  0  0  0  0  0  0  0  0  0  0  0
   -4.8246   -0.1084    4.4997 C   0  0  0  0  0  0  0  0  0  0  0  0
    0.8749    4.2292    3.4450 H   0  0  0  0  0  0  0  0  0  0  0  0
   -1.8886    1.9531    1.1923 H   0  0  0  0  0  0  0  0  0  0  0  0
   -0.3866    2.1015   -0.7432 H   0  0  0  0  0  0  0  0  0  0  0  0
    2.6365    4.2598   -0.8293 H   0  0  0  0  0  0  0  0  0  0  0  0
    2.2222    1.2435   -0.6183 H   0  0  0  0  0  0  0  0  0  0  0  0
    4.4065    1.3432   -0.3076 H   0  0  0  0  0  0  0  0  0  0  0  0
    2.6301    0.8991   -2.8373 H   0  0  0  0  0  0  0  0  0  0  0  0
    2.5580    3.8007   -3.6047 H   0  0  0  0  0  0  0  0  0  0  0  0
    4.7607    1.3558   -2.8349 H   0  0  0  0  0  0  0  0  0  0  0  0
    1.6639    1.9281   -4.9909 H   0  0  0  0  0  0  0  0  0  0  0  0
    0.4595    3.2368   -4.6349 H   0  0  0  0  0  0  0  0  0  0  0  0
   -0.1303    1.4535   -6.7389 H   0  0  0  0  0  0  0  0  0  0  0  0
   -1.6251   -3.2316   -4.5355 H   0  0  0  0  0  0  0  0  0  0  0  0
    0.7158   -2.8831   -1.9534 H   0  0  0  0  0  0  0  0  0  0  0  0
    0.4599   -3.3324    0.2539 H   0  0  0  0  0  0  0  0  0  0  0  0
   -1.6897   -1.2243    0.4187 H   0  0  0  0  0  0  0  0  0  0  0  0
   -4.1860   -3.7816   -0.7045 H   0  0  0  0  0  0  0  0  0  0  0  0
   -3.9169   -2.0058   -0.5343 H   0  0  0  0  0  0  0  0  0  0  0  0
   -3.9664   -3.0601    0.9399 H   0  0  0  0  0  0  0  0  0  0  0  0
    0.6544   -0.3374    0.8341 H   0  0  0  0  0  0  0  0  0  0  0  0
    2.7141   -2.5032    1.4747 H   0  0  0  0  0  0  0  0  0  0  0  0
    4.0085   -0.7380    1.6377 H   0  0  0  0  0  0  0  0  0  0  0  0
    3.7437   -1.1009   -0.7360 H   0  0  0  0  0  0  0  0  0  0  0  0
    3.4704   -3.2305   -2.0473 H   0  0  0  0  0  0  0  0  0  0  0  0
    2.5015   -3.9014   -0.6975 H   0  0  0  0  0  0  0  0  0  0  0  0
    5.2102   -3.0518   -0.6961 H   0  0  0  0  0  0  0  0  0  0  0  0
   -0.2181    0.1487    2.6628 H   0  0  0  0  0  0  0  0  0  0  0  0
    1.4192   -0.3665    4.4206 H   0  0  0  0  0  0  0  0  0  0  0  0
    0.3749   -1.7113    5.0235 H   0  0  0  0  0  0  0  0  0  0  0  0
   -0.2107   -0.0002    5.1000 H   0  0  0  0  0  0  0  0  0  0  0  0
   -2.4815    0.6254    3.2708 H   0  0  0  0  0  0  0  0  0  0  0  0
   -4.2405   -1.8732    3.4196 H   0  0  0  0  0  0  0  0  0  0  0  0
   -4.7939    1.0293    0.4517 H   0  0  0  0  0  0  0  0  0  0  0  0
   -4.7854    0.9986    4.4088 H   0  0  0  0  0  0  0  0  0  0  0  0
   -4.3162   -0.4073    5.4407 H   0  0  0  0  0  0  0  0  0  0  0  0
   -5.8875   -0.4305    4.5565 H   0  0  0  0  0  0  0  0  0  0  0  0
  1  2  1  0
  2  3  1  0
  3  4  1  0
  4  5  1  0
  1  6  1  0
  5  6  2  0
  2  7  2  0
  4  8  2  0
  9  1  1  0
  9 10  1  0
 10 11  1  0
 10 12  1  0
 12 13  1  0
  9 14  1  0
 13 14  1  0
 12 15  1  0
 13 16  1  0
 16 17  1  0
 18 17  1  1
 18 19  2  0
 18 20  1  0
 18 21  1  0
 22 21  1  6
 22 23  2  0
 22 24  1  0
 22 25  1  0
 26 25  1  0
 26 27  1  0
 27 28  1  0
 28 29  1  0
 29 30  2  0
 29 31  1  0
 27 32  1  0
 32 33  1  0
 32 34  1  0
 34 35  1  0
 34 36  1  0
 26 37  1  0
 36 37  1  0
 36 38  1  0
 38 39  1  0
 33 40  1  0
 40 41  1  0
 41 42  2  0
 40 43  1  0
 41 44  1  0
 44 45  1  0
 45 46  1  0
 46 47  2  0
 46 48  1  0
 45 49  1  0
  3 50  1  0
  5 51  1  0
  6 52  1  0
  9 53  1  1
 10 54  1  1
 11 55  1  0
 12 56  1  1
 13 57  1  6
 15 58  1  0
 16 59  1  0
 16 60  1  0
 20 61  1  0
 24 62  1  0
 26 63  1  6
 27 64  1  1
 28 65  1  0
 31 66  1  0
 31 67  1  0
 31 68  1  0
 32 69  1  6
 34 70  1  1
 35 71  1  0
 36 72  1  1
 38 73  1  0
 38 74  1  0
 39 75  1  0
 40 76  1  6
 43 77  1  0
 43 78  1  0
 43 79  1  0
 44 80  1  0
 45 81  1  1
 48 82  1  0
 49 83  1  0
 49 84  1  0
 49 85  1  0
M  END
