7BCP_GCO_A_401
     RDKit          3D

 25 24  0  0  0  0  0  0  0  0999 V2000
  -21.3614    2.7774   -3.6529 C   0  0  0  0  0  0  0  0  0  0  0  0
  -22.1166    3.9206   -2.9911 C   0  0  2  0  0  0  0  0  0  0  0  0
  -21.3247    5.2036   -2.7291 C   0  0  1  0  0  0  0  0  0  0  0  0
  -20.0777    5.1009   -3.6175 C   0  0  2  0  0  0  0  0  0  0  0  0
  -20.0597    3.7414   -4.3083 C   0  0  2  0  0  0  0  0  0  0  0  0
  -21.3486    3.0108   -3.9656 C   0  0  0  0  0  0  0  0  0  0  0  0
  -20.1615    2.9606   -4.0338 O   0  0  0  0  0  0  0  0  0  0  0  0
  -21.9253    1.6720   -3.8129 O   0  0  0  0  0  0  0  0  0  0  0  0
  -22.5608    3.3358   -1.7740 O   0  0  0  0  0  0  0  0  0  0  0  0
  -22.1690    6.2503   -3.1212 O   0  0  0  0  0  0  0  0  0  0  0  0
  -18.8907    5.3593   -2.8776 O   0  0  0  0  0  0  0  0  0  0  0  0
  -19.0030    2.9163   -3.8117 O   0  0  0  0  0  0  0  0  0  0  0  0
  -21.3455    1.8411   -4.7612 O   0  0  0  0  0  0  0  0  0  0  0  0
  -22.8872    4.2772   -3.6423 H   0  0  0  0  0  0  0  0  0  0  0  0
  -21.0219    5.3591   -1.7148 H   0  0  0  0  0  0  0  0  0  0  0  0
  -20.1173    5.8550   -4.3754 H   0  0  0  0  0  0  0  0  0  0  0  0
  -19.9368    3.9114   -5.3576 H   0  0  0  0  0  0  0  0  0  0  0  0
  -21.3685    2.7558   -2.9266 H   0  0  0  0  0  0  0  0  0  0  0  0
  -22.2099    3.6166   -4.1555 H   0  0  0  0  0  0  0  0  0  0  0  0
  -22.8095    1.5515   -3.5273 H   0  0  0  0  0  0  0  0  0  0  0  0
  -21.7938    3.0453   -1.2559 H   0  0  0  0  0  0  0  0  0  0  0  0
  -22.4468    6.1143   -4.0405 H   0  0  0  0  0  0  0  0  0  0  0  0
  -18.8009    4.7016   -2.1704 H   0  0  0  0  0  0  0  0  0  0  0  0
  -19.1264    2.7703   -2.8608 H   0  0  0  0  0  0  0  0  0  0  0  0
  -20.5532    1.3176   -4.5633 H   0  0  0  0  0  0  0  0  0  0  0  0
  1  2  1  0
  2  3  1  0
  3  4  1  0
  4  5  1  0
  5  6  1  0
  1  7  2  0
  1  8  1  0
  2  9  1  0
  3 10  1  0
  4 11  1  0
  5 12  1  0
  6 13  1  0
  2 14  1  1
  3 15  1  6
  4 16  1  1
  5 17  1  1
  6 18  1  0
  6 19  1  0
  8 20  1  0
  9 21  1  0
 10 22  1  0
 11 23  1  0
 12 24  1  0
 13 25  1  0
M  END
