7SFO_98L_A_601
     RDKit          3D

 25 28  0  0  0  0  0  0  0  0999 V2000
    1.1480    7.1630   -4.3160 N   0  0  0  0  0  0  0  0  0  0  0  0
    3.8290    4.1840   -5.5180 N   0  0  0  0  0  0  0  0  0  0  0  0
    1.6840    2.4500   -6.9320 C   0  0  0  0  0  0  0  0  0  0  0  0
    1.2230    2.4310   -5.6890 C   0  0  0  0  0  0  0  0  0  0  0  0
    1.0860    1.1260   -4.9340 C   0  0  0  0  0  0  0  0  0  0  0  0
    0.7480    3.7640   -5.1660 C   0  0  0  0  0  0  0  0  0  0  0  0
    0.7170    5.9660   -4.5810 C   0  0  0  0  0  0  0  0  0  0  0  0
    2.4570    7.3550   -4.4660 C   0  0  0  0  0  0  0  0  0  0  0  0
    5.2410    4.4440   -5.3940 C   0  0  0  0  0  0  0  0  0  0  0  0
    7.1090    3.7570   -6.8260 C   0  0  0  0  0  0  0  0  0  0  0  0
    6.9780    3.3610   -9.2510 C   0  0  0  0  0  0  0  0  0  0  0  0
    1.5070    0.0280   -5.5250 C   0  0  0  0  0  0  0  0  0  0  0  0
    2.9070    5.2110   -5.1190 C   0  0  0  0  0  0  0  0  0  0  0  0
   -0.5900    3.9050   -4.9540 C   0  0  0  0  0  0  0  0  0  0  0  0
    5.8460    4.0690   -6.7430 C   0  0  0  0  0  0  0  0  0  0  0  0
    7.7250    3.3710   -8.1670 C   0  0  0  0  0  0  0  0  0  0  0  0
    5.5030    3.7320   -9.1630 C   0  0  0  0  0  0  0  0  0  0  0  0
    4.9720    4.0720   -8.0010 C   0  0  0  0  0  0  0  0  0  0  0  0
    2.0570    0.0430   -6.9420 C   0  0  0  0  0  0  0  0  0  0  0  0
    2.1490    1.1720   -7.6200 C   0  0  0  0  0  0  0  0  0  0  0  0
    1.5670    4.9250   -4.9910 C   0  0  0  0  0  0  0  0  0  0  0  0
    3.3610    6.4370   -4.8510 N   0  0  0  0  0  0  0  0  0  0  0  0
    9.0860    3.0270   -8.2340 O   0  0  0  0  0  0  0  0  0  0  0  0
   -1.0130    5.5290   -4.4320 S   0  0  0  0  0  0  0  0  0  0  0  0
    3.0040    9.0160   -4.1150 Cl  0  0  0  0  0  0  0  0  0  0  0  0
  3  4  2  0
  4  5  1  0
  4  6  1  0
  1  7  2  0
  1  8  1  0
  2  9  1  0
  5 12  2  0
  2 13  1  0
  6 14  2  0
 10 15  2  0
  9 15  1  0
 11 16  2  0
 10 16  1  0
 11 17  1  0
 17 18  2  0
 15 18  1  0
 12 19  1  0
 19 20  2  0
  3 20  1  0
  6 21  1  0
 13 21  2  0
  7 21  1  0
 13 22  1  0
  8 22  2  0
 16 23  1  0
 14 24  1  0
  7 24  1  0
  8 25  1  0
M  END
$$$$
7SFO_98L_B_601
     RDKit          3D

 25 28  0  0  0  0  0  0  0  0999 V2000
   -5.3520   -8.9000   17.6020 N   0  0  0  0  0  0  0  0  0  0  0  0
   -4.1440   -5.6410   19.9430 N   0  0  0  0  0  0  0  0  0  0  0  0
   -7.0390   -4.1600   19.5770 C   0  0  0  0  0  0  0  0  0  0  0  0
   -6.5100   -4.1630   18.3540 C   0  0  0  0  0  0  0  0  0  0  0  0
   -6.1800   -2.8620   17.6740 C   0  0  0  0  0  0  0  0  0  0  0  0
   -6.4440   -5.5540   17.7640 C   0  0  0  0  0  0  0  0  0  0  0  0
   -5.9380   -7.7590   17.4710 C   0  0  0  0  0  0  0  0  0  0  0  0
   -4.4030   -8.9390   18.5150 C   0  0  0  0  0  0  0  0  0  0  0  0
   -3.0160   -5.8830   20.8100 C   0  0  0  0  0  0  0  0  0  0  0  0
   -2.4980   -4.9720   23.0350 C   0  0  0  0  0  0  0  0  0  0  0  0
   -4.1780   -4.4530   24.7610 C   0  0  0  0  0  0  0  0  0  0  0  0
   -6.3580   -1.7490   18.3710 C   0  0  0  0  0  0  0  0  0  0  0  0
   -4.5840   -6.7530   19.1400 C   0  0  0  0  0  0  0  0  0  0  0  0
   -7.3630   -5.8730   16.7980 C   0  0  0  0  0  0  0  0  0  0  0  0
   -3.4310   -5.3820   22.1990 C   0  0  0  0  0  0  0  0  0  0  0  0
   -2.9030   -4.4680   24.4020 C   0  0  0  0  0  0  0  0  0  0  0  0
   -5.2480   -4.9280   23.7990 C   0  0  0  0  0  0  0  0  0  0  0  0
   -4.9070   -5.3660   22.6000 C   0  0  0  0  0  0  0  0  0  0  0  0
   -6.9310   -1.7340   19.7850 C   0  0  0  0  0  0  0  0  0  0  0  0
   -7.2620   -2.8800   20.3690 C   0  0  0  0  0  0  0  0  0  0  0  0
   -5.6000   -6.6160   18.2270 C   0  0  0  0  0  0  0  0  0  0  0  0
   -3.9730   -7.9350   19.2920 N   0  0  0  0  0  0  0  0  0  0  0  0
   -1.9370   -4.0380   25.2930 O   0  0  0  0  0  0  0  0  0  0  0  0
   -7.2400   -7.5510   16.2700 S   0  0  0  0  0  0  0  0  0  0  0  0
   -3.6820  -10.5420   18.6820 Cl  0  0  0  0  0  0  0  0  0  0  0  0
  3  4  2  0
  4  5  1  0
  4  6  1  0
  1  7  2  0
  1  8  1  0
  2  9  1  0
  5 12  2  0
  2 13  1  0
  6 14  2  0
 10 15  2  0
  9 15  1  0
 11 16  2  0
 10 16  1  0
 11 17  1  0
 17 18  2  0
 15 18  1  0
 12 19  1  0
 19 20  2  0
  3 20  1  0
  6 21  1  0
 13 21  2  0
  7 21  1  0
 13 22  1  0
  8 22  2  0
 16 23  1  0
 14 24  1  0
  7 24  1  0
  8 25  1  0
M  END
$$$$
