7RH8_UTP_A_301
     RDKit          3D

 29 30  0  0  0  0  0  0  0  0999 V2000
   -8.3560  -63.8110   14.4072 P   0  0  2  0  0  5  0  0  0  0  0  0
   -7.9672  -64.7421   13.2822 O   0  0  0  0  0  0  0  0  0  0  0  0
   -8.4705  -62.2583   13.7745 O   0  0  0  0  0  0  0  0  0  0  0  0
   -7.1234  -63.8067   15.5621 O   0  0  0  0  0  0  0  0  0  0  0  0
   -9.7585  -64.3127   15.1663 O   0  0  0  0  0  0  0  0  0  0  0  0
   -6.3966  -65.3017   15.7286 P   0  0  2  0  0  5  0  0  0  0  0  0
   -7.4822  -66.5634   15.9613 O   0  0  0  0  0  0  0  0  0  0  0  0
   -5.4336  -65.2095   16.9055 O   0  0  0  0  0  0  0  0  0  0  0  0
   -5.4655  -65.6504   14.3436 O   0  0  0  0  0  0  0  0  0  0  0  0
   -5.8050  -67.1721   13.7347 P   0  0  1  0  0  5  0  0  0  0  0  0
   -4.6110  -67.5457   12.5809 O   0  0  0  0  0  0  0  0  0  0  0  0
   -5.8474  -68.2455   14.7958 O   0  0  0  0  0  0  0  0  0  0  0  0
   -7.3072  -67.0894   12.9503 O   0  0  0  0  0  0  0  0  0  0  0  0
   -9.9997  -65.6831   15.0115 C   0  0  0  0  0  0  0  0  0  0  0  0
  -11.1123  -66.0212   15.9929 C   0  0  1  0  0  0  0  0  0  0  0  0
  -11.0760  -65.2247   17.1326 O   0  0  0  0  0  0  0  0  0  0  0  0
  -12.4002  -65.0876   17.5552 C   0  0  2  0  0  0  0  0  0  0  0  0
  -13.0584  -64.7267   16.2378 C   0  0  2  0  0  0  0  0  0  0  0  0
  -14.4409  -64.8527   16.3001 O   0  0  0  0  0  0  0  0  0  0  0  0
  -12.4317  -65.7592   15.3159 C   0  0  2  0  0  0  0  0  0  0  0  0
  -13.1832  -66.9485   15.3540 O   0  0  0  0  0  0  0  0  0  0  0  0
  -12.4974  -64.0659   18.5521 N   0  0  0  0  0  0  0  0  0  0  0  0
  -11.5864  -63.0765   18.5473 C   0  0  0  0  0  0  0  0  0  0  0  0
  -13.4916  -64.1373   19.4485 C   0  0  0  0  0  0  0  0  0  0  0  0
  -14.3292  -65.0768   19.4266 O   0  0  0  0  0  0  0  0  0  0  0  0
  -13.6362  -63.2064   20.4110 N   0  0  0  0  0  0  0  0  0  0  0  0
  -12.7476  -62.1745   20.4653 C   0  0  0  0  0  0  0  0  0  0  0  0
  -12.8939  -61.3118   21.3691 O   0  0  0  0  0  0  0  0  0  0  0  0
  -11.7217  -62.1114   19.5309 C   0  0  0  0  0  0  0  0  0  0  0  0
  1  2  2  0
  1  3  1  6
  1  4  1  0
  1  5  1  0
  6  4  1  0
  6  7  1  1
  6  8  2  0
  6  9  1  0
  9 10  1  0
 10 11  1  6
 10 12  2  0
 10 13  1  0
 14  5  1  6
 15 14  1  0
 15 16  1  1
 16 17  1  0
 17 18  1  0
 18 19  1  1
 15 20  1  0
 18 20  1  0
 20 21  1  1
 17 22  1  1
 22 23  1  0
 22 24  1  0
 24 25  2  0
 24 26  1  0
 26 27  1  0
 27 28  2  0
 23 29  2  0
 27 29  1  0
M  END
$$$$
