7R6J_2I7_B_901
     RDKit          3D

 33 36  0  0  0  0  0  0  0  0999 V2000
  -26.5111  -28.1562  -47.6044 N   0  0  0  0  0  0  0  0  0  0  0  0
  -22.2235  -35.6936  -49.2806 N   0  0  0  0  0  0  0  0  0  0  0  0
  -25.0822  -28.3345  -47.2020 C   0  0  0  0  0  0  0  0  0  0  0  0
  -26.7341  -26.7680  -48.0416 C   0  0  2  0  0  0  0  0  0  0  0  0
  -28.2155  -26.5088  -48.5542 C   0  0  0  0  0  0  0  0  0  0  0  0
  -27.3297  -28.6370  -46.7324 C   0  0  0  0  0  0  0  0  0  0  0  0
  -26.8895  -30.0364  -46.0523 C   0  0  0  0  0  0  0  0  0  0  0  0
  -25.3511  -31.8652  -45.5911 C   0  0  0  0  0  0  0  0  0  0  0  0
  -21.4002  -30.8572  -47.7281 C   0  0  0  0  0  0  0  0  0  0  0  0
  -19.8219  -29.8610  -49.4213 C   0  0  0  0  0  0  0  0  0  0  0  0
  -21.8441  -33.2303  -49.2372 C   0  0  0  0  0  0  0  0  0  0  0  0
  -22.6099  -36.9937  -51.2278 C   0  0  0  0  0  0  0  0  0  0  0  0
  -22.5237  -35.8305  -51.9528 C   0  0  0  0  0  0  0  0  0  0  0  0
  -22.4736  -33.0435  -48.0029 C   0  0  0  0  0  0  0  0  0  0  0  0
  -27.4365  -31.8251  -44.4431 C   0  0  0  0  0  0  0  0  0  0  0  0
  -25.7696  -26.4533  -49.2384 C   0  0  2  0  0  0  0  0  0  0  0  0
  -24.0305  -32.6397  -45.7820 C   0  0  0  0  0  0  0  0  0  0  0  0
  -22.2556  -31.8543  -47.2775 C   0  0  0  0  0  0  0  0  0  0  0  0
  -20.7547  -31.0278  -48.9513 C   0  0  0  0  0  0  0  0  0  0  0  0
  -20.9749  -32.2254  -49.7041 C   0  0  0  0  0  0  0  0  0  0  0  0
  -22.1399  -34.5891  -49.9885 C   0  0  0  0  0  0  0  0  0  0  0  0
  -22.4508  -36.8988  -49.8376 C   0  0  0  0  0  0  0  0  0  0  0  0
  -24.3594  -26.7013  -48.8666 C   0  0  1  0  0  0  0  0  0  0  0  0
  -26.2490  -32.4489  -44.7061 C   0  0  0  0  0  0  0  0  0  0  0  0
  -27.7497  -30.6135  -45.1376 C   0  0  0  0  0  0  0  0  0  0  0  0
  -24.1825  -28.1027  -48.4557 C   0  0  1  0  0  0  0  0  0  0  0  0
  -25.6674  -30.6541  -46.2990 C   0  0  0  0  0  0  0  0  0  0  0  0
  -22.9324  -31.7053  -45.9999 N   0  0  0  0  0  0  0  0  0  0  0  0
  -22.2855  -34.6586  -51.3180 N   0  0  0  0  0  0  0  0  0  0  0  0
  -25.9537  -25.0759  -49.6009 O   0  0  0  0  0  0  0  0  0  0  0  0
  -23.5977  -26.4014  -50.1084 O   0  0  0  0  0  0  0  0  0  0  0  0
  -22.7874  -28.3347  -48.0740 O   0  0  0  0  0  0  0  0  0  0  0  0
  -28.2101  -26.3150  -49.8980 O   0  0  0  0  0  0  0  0  0  0  0  0
  1  3  1  0
  1  4  1  0
  4  5  1  6
  1  6  1  0
  6  7  1  0
 12 13  1  0
 11 14  2  0
  4 16  1  0
  8 17  1  0
 14 18  1  0
  9 18  2  0
  9 19  1  0
 10 19  1  0
 11 20  1  0
 19 20  2  0
  2 21  2  0
 11 21  1  0
 12 22  2  0
  2 22  1  0
 16 23  1  0
  8 24  1  0
 15 24  2  0
  7 25  2  0
 15 25  1  0
 23 26  1  0
  3 26  1  0
  7 27  1  0
  8 27  2  0
 17 28  1  0
 18 28  1  0
 13 29  2  0
 21 29  1  0
 16 30  1  1
 23 31  1  6
 26 32  1  1
  5 33  1  0
M  END
