6XCT_478_A_401
     RDKit          3D

 70 72  0  0  0  0  0  0  0  0999 V2000
    1.1473    5.9845    0.0597 C   0  0  0  0  0  0  0  0  0  0  0  0
    2.1831    4.8616    1.8495 C   0  0  0  0  0  0  0  0  0  0  0  0
    3.8112    6.3546   -1.1439 C   0  0  0  0  0  0  0  0  0  0  0  0
    2.3202    5.0733    0.3732 C   0  0  2  0  0  0  0  0  0  0  0  0
    1.7326    7.2275   -2.3216 C   0  0  2  0  0  0  0  0  0  0  0  0
    2.2700    8.6643   -2.5358 C   0  0  1  0  0  0  0  0  0  0  0  0
    0.7954    7.1166   -1.0975 C   0  0  0  0  0  0  0  0  0  0  0  0
    0.3908    5.6958   -0.7844 C   0  0  0  0  0  0  0  0  0  0  0  0
    1.3541    4.6722   -0.7617 C   0  0  0  0  0  0  0  0  0  0  0  0
   -0.9507    5.3824   -0.5065 C   0  0  0  0  0  0  0  0  0  0  0  0
    0.9773    3.3556   -0.4814 C   0  0  0  0  0  0  0  0  0  0  0  0
   -1.3233    4.0645   -0.2265 C   0  0  0  0  0  0  0  0  0  0  0  0
   -0.3615    3.0508   -0.2229 C   0  0  0  0  0  0  0  0  0  0  0  0
    3.7030    8.8051   -1.9893 C   0  0  0  0  0  0  0  0  0  0  0  0
    5.6238    7.8208   -3.2021 C   0  0  0  0  0  0  0  0  0  0  0  0
    5.2837    8.7065   -4.4420 C   0  0  1  0  0  0  0  0  0  0  0  0
    2.2398    5.9284   -1.5939 C   0  0  0  0  0  0  0  0  0  0  0  0
    2.3002    4.7512   -0.8364 C   0  0  0  0  0  0  0  0  0  0  0  0
    1.3241    4.4846    0.1278 C   0  0  0  0  0  0  0  0  0  0  0  0
    0.2810    5.3954    0.3465 C   0  0  0  0  0  0  0  0  0  0  0  0
    0.2366    6.5864   -0.3913 C   0  0  0  0  0  0  0  0  0  0  0  0
    1.2106    6.8513   -1.3583 C   0  0  0  0  0  0  0  0  0  0  0  0
    6.4132    8.6607   -5.4801 C   0  0  0  0  0  0  0  0  0  0  0  0
    3.9650    8.2677   -5.0948 C   0  0  0  0  0  0  0  0  0  0  0  0
    0.6940    5.0289    2.0763 C   0  0  0  0  0  0  0  0  0  0  0  0
    2.8406    6.2735   -2.1926 N   0  0  0  0  0  0  0  0  0  0  0  0
    4.4834    7.5865   -2.2905 N   0  0  0  0  0  0  0  0  0  0  0  0
   -0.7344    5.1088    1.3112 N   0  0  0  0  0  0  0  0  0  0  0  0
    3.5693    5.6889    0.0614 O   0  0  0  0  0  0  0  0  0  0  0  0
    4.8704    7.0216   -1.3050 O   0  0  0  0  0  0  0  0  0  0  0  0
    2.2715    8.9627   -3.9097 O   0  0  0  0  0  0  0  0  0  0  0  0
    2.8036    6.5706   -4.1188 O   0  0  0  0  0  0  0  0  0  0  0  0
    4.3056    5.0158   -2.9859 O   0  0  0  0  0  0  0  0  0  0  0  0
    0.1379    5.7826    1.0224 O   0  0  0  0  0  0  0  0  0  0  0  0
    3.4715    6.2542   -2.8093 S   0  0  2  0  0  6  0  0  0  0  0  0
    1.4628    7.0506    0.0935 H   0  0  0  0  0  0  0  0  0  0  0  0
    0.7473    5.7646   -0.9529 H   0  0  0  0  0  0  0  0  0  0  0  0
    2.7394    5.6444    2.4122 H   0  0  0  0  0  0  0  0  0  0  0  0
    2.5381    3.8537    2.1558 H   0  0  0  0  0  0  0  0  0  0  0  0
    2.2156    4.0993   -0.1577 H   0  0  0  0  0  0  0  0  0  0  0  0
    1.1319    6.9642   -3.2213 H   0  0  0  0  0  0  0  0  0  0  0  0
    1.6017    9.3690   -1.9937 H   0  0  0  0  0  0  0  0  0  0  0  0
   -0.1180    7.7217   -1.2872 H   0  0  0  0  0  0  0  0  0  0  0  0
    1.2805    7.5765   -0.2089 H   0  0  0  0  0  0  0  0  0  0  0  0
    2.3941    4.8929   -0.9672 H   0  0  0  0  0  0  0  0  0  0  0  0
   -1.7072    6.1567   -0.5108 H   0  0  0  0  0  0  0  0  0  0  0  0
    1.7220    2.5705   -0.4693 H   0  0  0  0  0  0  0  0  0  0  0  0
   -2.3582    3.8284   -0.0137 H   0  0  0  0  0  0  0  0  0  0  0  0
   -0.6517    2.0297   -0.0115 H   0  0  0  0  0  0  0  0  0  0  0  0
    4.1945    9.7062   -2.4153 H   0  0  0  0  0  0  0  0  0  0  0  0
    3.6288    8.9753   -0.8919 H   0  0  0  0  0  0  0  0  0  0  0  0
    6.0421    6.8407   -3.5189 H   0  0  0  0  0  0  0  0  0  0  0  0
    6.4446    8.2811   -2.6083 H   0  0  0  0  0  0  0  0  0  0  0  0
    5.1695    9.7681   -4.1420 H   0  0  0  0  0  0  0  0  0  0  0  0
    3.1009    4.0397   -0.9945 H   0  0  0  0  0  0  0  0  0  0  0  0
    1.3773    3.5671    0.6998 H   0  0  0  0  0  0  0  0  0  0  0  0
   -0.5554    7.3049   -0.2215 H   0  0  0  0  0  0  0  0  0  0  0  0
    1.1614    7.7760   -1.9192 H   0  0  0  0  0  0  0  0  0  0  0  0
    6.1644    9.3067   -6.3494 H   0  0  0  0  0  0  0  0  0  0  0  0
    6.5732    7.6217   -5.8401 H   0  0  0  0  0  0  0  0  0  0  0  0
    7.3589    9.0346   -5.0349 H   0  0  0  0  0  0  0  0  0  0  0  0
    3.1328    8.3120   -4.3627 H   0  0  0  0  0  0  0  0  0  0  0  0
    3.7121    8.9429   -5.9399 H   0  0  0  0  0  0  0  0  0  0  0  0
    4.0452    7.2283   -5.4791 H   0  0  0  0  0  0  0  0  0  0  0  0
    0.5036    5.5408    3.0434 H   0  0  0  0  0  0  0  0  0  0  0  0
    0.2015    4.0329    2.1005 H   0  0  0  0  0  0  0  0  0  0  0  0
    2.9801    5.5462   -2.9306 H   0  0  0  0  0  0  0  0  0  0  0  0
   -0.7080    4.2257    1.8682 H   0  0  0  0  0  0  0  0  0  0  0  0
   -1.5172    5.7790    1.4771 H   0  0  0  0  0  0  0  0  0  0  0  0
    2.1836    9.9475   -3.9940 H   0  0  0  0  0  0  0  0  0  0  0  0
  1  4  1  0
  2  4  1  0
  5  6  1  0
  5  7  1  0
  7  8  1  0
  8  9  4  0
  8 10  4  0
  9 11  4  0
 10 12  4  0
 11 13  4  0
 12 13  4  0
  6 14  1  0
 15 16  1  0
 17 18  4  0
 18 19  4  0
 19 20  4  0
 20 21  4  0
 17 22  4  0
 21 22  4  0
 16 23  1  0
 16 24  1  0
  2 25  1  0
  3 26  1  0
  5 26  1  0
 14 27  1  0
 15 27  1  0
 20 28  1  0
  3 29  1  0
  4 29  1  0
  3 30  2  0
  6 31  1  0
  1 34  1  0
 25 34  1  0
 17 35  1  0
 35 27  1  1
 32 35  2  0
 33 35  2  0
  1 36  1  0
  1 37  1  0
  2 38  1  0
  2 39  1  0
  4 40  1  6
  5 41  1  6
  6 42  1  1
  7 43  1  0
  7 44  1  0
  9 45  1  0
 10 46  1  0
 11 47  1  0
 12 48  1  0
 13 49  1  0
 14 50  1  0
 14 51  1  0
 15 52  1  0
 15 53  1  0
 16 54  1  1
 18 55  1  0
 19 56  1  0
 21 57  1  0
 22 58  1  0
 23 59  1  0
 23 60  1  0
 23 61  1  0
 24 62  1  0
 24 63  1  0
 24 64  1  0
 25 65  1  0
 25 66  1  0
 26 67  1  0
 28 68  1  0
 28 69  1  0
 31 70  1  0
M  END
