6XG5_TOP_A_303
     RDKit          3D

 21 22  0  0  0  0  0  0  0  0999 V2000
   -8.8125   27.2548   18.9660 C   0  0  0  0  0  0  0  0  0  0  0  0
   -8.6585   26.6978   20.1847 N   0  0  0  0  0  0  0  0  0  0  0  0
   -9.1113   25.4609   20.4342 C   0  0  0  0  0  0  0  0  0  0  0  0
   -8.9097   24.9463   21.7472 N   0  0  0  0  0  0  0  0  0  0  0  0
   -9.7209   24.7753   19.4639 N   0  0  0  0  0  0  0  0  0  0  0  0
   -9.8967   25.3033   18.2172 C   0  0  0  0  0  0  0  0  0  0  0  0
  -10.5447   24.5393   17.2420 N   0  0  0  0  0  0  0  0  0  0  0  0
   -9.4457   26.5705   17.9215 C   0  0  0  0  0  0  0  0  0  0  0  0
   -9.5841   27.2237   16.6079 C   0  0  0  0  0  0  0  0  0  0  0  0
   -8.6811   28.3810   16.4040 C   0  0  0  0  0  0  0  0  0  0  0  0
   -9.2089   29.6637   16.2624 C   0  0  0  0  0  0  0  0  0  0  0  0
   -8.4466   30.7709   16.0684 C   0  0  0  0  0  0  0  0  0  0  0  0
   -8.9313   32.0610   15.9231 O   0  0  0  0  0  0  0  0  0  0  0  0
  -10.2587   32.4363   15.7466 C   0  0  0  0  0  0  0  0  0  0  0  0
   -7.0652   30.6158   16.0078 C   0  0  0  0  0  0  0  0  0  0  0  0
   -6.2259   31.7290   15.8089 O   0  0  0  0  0  0  0  0  0  0  0  0
   -5.7374   32.4811   16.9027 C   0  0  0  0  0  0  0  0  0  0  0  0
   -6.4851   29.3721   16.1409 C   0  0  0  0  0  0  0  0  0  0  0  0
   -5.1057   29.2798   16.0717 O   0  0  0  0  0  0  0  0  0  0  0  0
   -4.4467   28.0146   15.9483 C   0  0  0  0  0  0  0  0  0  0  0  0
   -7.3090   28.2843   16.3358 C   0  0  0  0  0  0  0  0  0  0  0  0
  1  2  2  0
  2  3  1  0
  3  4  1  0
  3  5  2  0
  5  6  1  0
  6  7  1  0
  1  8  1  0
  6  8  2  0
  9  8  1  1
  9 10  1  0
 10 11  2  0
 11 12  1  0
 12 13  1  0
 14 13  1  6
 12 15  2  0
 15 16  1  0
 17 16  1  1
 15 18  1  0
 18 19  1  0
 20 19  1  1
 10 21  1  0
 18 21  2  0
M  END
$$$$
