7ZF0_DHR_A_508
     RDKit          3D

 18 18  0  0  0  0  0  0  0  0999 V2000
   31.1461   54.8616   50.5460 N   0  0  0  0  0  0  0  0  0  0  0  0
   31.9025   54.4969   49.7497 C   0  0  0  0  0  0  0  0  0  0  0  0
   34.1288   53.5038   49.3827 C   0  0  0  0  0  0  0  0  0  0  0  0
   34.5220   52.1696   49.1759 C   0  0  0  0  0  0  0  0  0  0  0  0
   34.9430   54.3402   50.1703 C   0  0  0  0  0  0  0  0  0  0  0  0
   36.1163   53.8461   50.7481 C   0  0  0  0  0  0  0  0  0  0  0  0
   35.6963   51.6791   49.7552 C   0  0  0  0  0  0  0  0  0  0  0  0
   36.4959   52.5165   50.5436 C   0  0  0  0  0  0  0  0  0  0  0  0
   37.6676   52.0382   51.1257 O   0  0  0  0  0  0  0  0  0  0  0  0
   32.8658   54.0327   48.7359 C   0  0  2  0  0  0  0  0  0  0  0  0
   33.1628   55.0600   47.8240 O   0  0  0  0  0  0  0  0  0  0  0  0
   33.9209   51.5066   48.5661 H   0  0  0  0  0  0  0  0  0  0  0  0
   34.6678   55.3736   50.3404 H   0  0  0  0  0  0  0  0  0  0  0  0
   36.7319   54.4982   51.3548 H   0  0  0  0  0  0  0  0  0  0  0  0
   35.9843   50.6488   49.5892 H   0  0  0  0  0  0  0  0  0  0  0  0
   37.9714   51.0803   50.9943 H   0  0  0  0  0  0  0  0  0  0  0  0
   32.3643   53.2183   48.1704 H   0  0  0  0  0  0  0  0  0  0  0  0
   34.0627   55.4183   48.0446 H   0  0  0  0  0  0  0  0  0  0  0  0
  1  2  3  0
  3  4  2  0
  3  5  1  0
  5  6  2  0
  4  7  1  0
  6  8  1  0
  7  8  2  0
  8  9  1  0
  2 10  1  0
  3 10  1  0
 10 11  1  0
  4 12  1  0
  5 13  1  0
  6 14  1  0
  7 15  1  0
  9 16  1  0
 10 17  1  6
 11 18  1  0
M  END
