7JGW_V9S_A_301
     RDKit          3D

 45 50  0  0  0  0  0  0  0  0999 V2000
  -14.2147    4.2424    8.9037 S   0  0  0  0  0  0  0  0  0  0  0  0
  -18.2256    5.7268   11.1034 C   0  0  0  0  0  0  0  0  0  0  0  0
  -20.0543    7.1324   11.6750 C   0  0  0  0  0  0  0  0  0  0  0  0
  -14.8832   15.5414    7.4171 C   0  0  0  0  0  0  0  0  0  0  0  0
  -20.1830   12.4350    9.4675 O   0  0  0  0  0  0  0  0  0  0  0  0
  -19.0079   12.4640    8.7174 C   0  0  0  0  0  0  0  0  0  0  0  0
  -18.7283   13.5328    8.1150 O   0  0  0  0  0  0  0  0  0  0  0  0
  -18.1675   11.2720    8.6652 C   0  0  0  0  0  0  0  0  0  0  0  0
  -16.9983   11.2608    7.8856 C   0  0  0  0  0  0  0  0  0  0  0  0
  -16.7026   12.3865    7.2030 O   0  0  0  0  0  0  0  0  0  0  0  0
  -17.4400   13.3354    6.5518 C   0  0  0  0  0  0  0  0  0  0  0  0
  -16.7341   14.5384    6.0280 C   0  0  0  0  0  0  0  0  0  0  0  0
  -16.2294   15.4148    7.1455 C   0  0  0  0  0  0  0  0  0  0  0  0
  -17.2067   16.0721    7.8683 C   0  0  0  0  0  0  0  0  0  0  0  0
  -16.7873   16.8809    8.8979 C   0  0  0  0  0  0  0  0  0  0  0  0
  -15.4479   17.0117    9.1741 C   0  0  0  0  0  0  0  0  0  0  0  0
  -14.4601   16.3517    8.4486 C   0  0  0  0  0  0  0  0  0  0  0  0
  -16.2856   10.0864    7.9112 C   0  0  0  0  0  0  0  0  0  0  0  0
  -16.6614    8.9758    8.6402 C   0  0  0  0  0  0  0  0  0  0  0  0
  -18.5325   10.1897    9.3745 N   0  0  0  0  0  0  0  0  0  0  0  0
  -17.8188    9.0499    9.3850 C   0  0  0  0  0  0  0  0  0  0  0  0
  -18.3108    7.9385   10.1901 C   0  0  0  0  0  0  0  0  0  0  0  0
  -19.4950    8.1137   10.8823 C   0  0  0  0  0  0  0  0  0  0  0  0
  -19.4212    5.9146   11.7972 C   0  0  0  0  0  0  0  0  0  0  0  0
  -19.9485    4.8184   12.6152 C   0  0  0  0  0  0  0  0  0  0  0  0
  -18.8928    4.0127   13.2879 C   0  0  0  0  0  0  0  0  0  0  0  0
  -17.7030    3.6641   12.4667 C   0  0  0  0  0  0  0  0  0  0  0  0
  -17.6830    6.7337   10.3101 C   0  0  0  0  0  0  0  0  0  0  0  0
  -17.5496    4.4477   11.2284 C   0  0  0  0  0  0  0  0  0  0  0  0
  -16.8311    4.0431   10.2368 N   0  0  0  0  0  0  0  0  0  0  0  0
  -16.2281    2.7663   10.3190 N   0  0  0  0  0  0  0  0  0  0  0  0
  -15.0086    2.6182    9.5831 C   0  0  0  0  0  0  0  0  0  0  0  0
  -14.2603    1.8324    9.2122 N   0  0  0  0  0  0  0  0  0  0  0  0
  -12.8638    3.2786    8.1812 C   0  0  0  0  0  0  0  0  0  0  0  0
  -13.1450    1.9256    8.5123 C   0  0  0  0  0  0  0  0  0  0  0  0
  -12.2549    0.8325    8.0893 C   0  0  0  0  0  0  0  0  0  0  0  0
  -12.4538   -0.3369    8.4756 O   0  0  0  0  0  0  0  0  0  0  0  0
  -11.1600    1.0793    7.2406 N   0  0  0  0  0  0  0  0  0  0  0  0
  -10.1657    0.1296    6.8428 C   0  0  0  0  0  0  0  0  0  0  0  0
   -9.1764   -0.1795    7.9009 C   0  0  0  0  0  0  0  0  0  0  0  0
   -8.9811   -1.5102    8.2779 C   0  0  0  0  0  0  0  0  0  0  0  0
   -8.0730   -1.8622    9.2519 C   0  0  0  0  0  0  0  0  0  0  0  0
   -8.4173    0.7629    8.5499 C   0  0  0  0  0  0  0  0  0  0  0  0
   -7.5090    0.4255    9.5222 C   0  0  0  0  0  0  0  0  0  0  0  0
   -7.3229   -0.8833    9.8870 C   0  0  0  0  0  0  0  0  0  0  0  0
  5  6  1  0
  6  7  2  0
  6  8  1  0
  8  9  2  0
  9 10  1  0
 11 10  1  1
 11 12  1  0
  4 13  2  0
 12 13  1  6
 13 14  1  0
 14 15  2  0
 15 16  1  0
 16 17  2  0
  4 17  1  0
  9 18  1  0
 18 19  2  0
  8 20  1  0
 19 21  1  0
 20 21  2  0
 21 22  1  0
 22 23  1  0
  3 23  2  0
  2 24  2  0
  3 24  1  0
 25 24  1  1
 26 25  1  1
 26 27  1  0
 22 28  2  0
  2 28  1  0
  2 29  1  0
 27 29  1  1
 29 30  2  0
 30 31  1  0
  1 32  1  0
 31 32  1  0
 32 33  2  0
  1 34  1  0
 34 35  2  0
 33 35  1  0
 35 36  1  0
 36 37  2  0
 36 38  1  0
 39 38  1  6
 39 40  1  0
 40 41  2  0
 41 42  1  0
 40 43  1  0
 43 44  2  0
 42 45  2  0
 44 45  1  0
M  END
$$$$
