7TS6_KMI_A_803
     RDKit          3D

 34 35  0  0  0  0  0  0  0  0999 V2000
    2.2417    3.3947   -0.0695 C   0  0  0  0  0  0  0  0  0  0  0  0
    2.5520    1.9913    1.8949 C   0  0  0  0  0  0  0  0  0  0  0  0
    2.0555    3.1625    1.2950 C   0  0  0  0  0  0  0  0  0  0  0  0
    2.9335    2.4686   -0.8515 C   0  0  0  0  0  0  0  0  0  0  0  0
    1.1259    2.3060    5.3267 C   0  0  0  0  0  0  0  0  0  0  0  0
    1.8739    1.3860    6.0686 C   0  0  0  0  0  0  0  0  0  0  0  0
    2.8576    0.6217    5.4291 C   0  0  0  0  0  0  0  0  0  0  0  0
    3.1011    0.8179    4.0629 C   0  0  0  0  0  0  0  0  0  0  0  0
    2.3406    1.7597    3.3465 C   0  0  0  0  0  0  0  0  0  0  0  0
    3.6873   -0.3521    6.2127 C   0  0  0  0  0  0  0  0  0  0  0  0
    3.4573    1.3054   -0.2700 C   0  0  0  0  0  0  0  0  0  0  0  0
    3.2629    1.0696    1.1012 C   0  0  0  0  0  0  0  0  0  0  0  0
    4.1926    0.3039   -1.1215 C   0  0  0  0  0  0  0  0  0  0  0  0
    4.2416    2.2200   -2.6031 C   0  0  0  0  0  0  0  0  0  0  0  0
    1.3741    2.4644    3.9992 N   0  0  0  0  0  0  0  0  0  0  0  0
    0.1056    3.0831    5.9539 N   0  0  0  0  0  0  0  0  0  0  0  0
    4.9149    0.9796   -2.2076 N   0  0  0  0  0  0  0  0  0  0  0  0
    1.8450    4.2939   -0.5231 H   0  0  0  0  0  0  0  0  0  0  0  0
    1.5076    3.8920    1.8787 H   0  0  0  0  0  0  0  0  0  0  0  0
    3.0651    2.6588   -1.9096 H   0  0  0  0  0  0  0  0  0  0  0  0
    1.6869    1.2630    7.1286 H   0  0  0  0  0  0  0  0  0  0  0  0
    3.8566    0.2222    3.5667 H   0  0  0  0  0  0  0  0  0  0  0  0
    4.5959    0.1597    6.5930 H   0  0  0  0  0  0  0  0  0  0  0  0
    3.1121   -0.7556    7.0733 H   0  0  0  0  0  0  0  0  0  0  0  0
    3.9938   -1.2079    5.5741 H   0  0  0  0  0  0  0  0  0  0  0  0
    3.6841    0.1768    1.5449 H   0  0  0  0  0  0  0  0  0  0  0  0
    3.5031   -0.4747   -1.5204 H   0  0  0  0  0  0  0  0  0  0  0  0
    4.9251   -0.2306   -0.4769 H   0  0  0  0  0  0  0  0  0  0  0  0
    4.2380    2.9462   -1.7627 H   0  0  0  0  0  0  0  0  0  0  0  0
    4.7929    2.6828   -3.4485 H   0  0  0  0  0  0  0  0  0  0  0  0
    3.1980    2.0207   -2.9325 H   0  0  0  0  0  0  0  0  0  0  0  0
   -0.4496    3.7695    5.3963 H   0  0  0  0  0  0  0  0  0  0  0  0
   -0.1005    2.9781    6.9723 H   0  0  0  0  0  0  0  0  0  0  0  0
    4.9039    0.3435   -3.0392 H   0  0  0  0  0  0  0  0  0  0  0  0
  2  3  4  0
  1  3  4  0
  1  4  4  0
  5  6  4  0
  6  7  4  0
  7  8  4  0
  8  9  4  0
  2  9  1  0
  7 10  1  0
  4 11  4  0
  2 12  4  0
 11 12  4  0
 11 13  1  0
  9 15  4  0
  5 15  4  0
  5 16  1  0
 13 17  1  0
 14 17  1  0
  1 18  1  0
  3 19  1  0
  4 20  1  0
  6 21  1  0
  8 22  1  0
 10 23  1  0
 10 24  1  0
 10 25  1  0
 12 26  1  0
 13 27  1  0
 13 28  1  0
 14 29  1  0
 14 30  1  0
 14 31  1  0
 16 32  1  0
 16 33  1  0
 17 34  1  0
M  END
