7PT3_3KK_A_702
     RDKit          3D

 54 56  0  0  0  0  0  0  0  0999 V2000
  -13.5640   -7.0800   28.0730 C   0  0  0  0  0  0  0  0  0  0  0  0
  -13.7840   -7.9330   26.8360 C   0  0  0  0  0  0  0  0  0  0  0  0
  -14.4670   -7.1260   25.7140 C   0  0  0  0  0  0  0  0  0  0  0  0
  -12.4660   -8.3360   26.4050 O   0  0  0  0  0  0  0  0  0  0  0  0
  -14.6360   -9.1770   27.2310 C   0  0  0  0  0  0  0  0  0  0  0  0
  -14.1760  -10.2850   27.4220 O   0  0  0  0  0  0  0  0  0  0  0  0
  -16.3660   -8.8670   27.4190 S   0  0  0  0  0  0  0  0  0  0  0  0
  -16.9570  -10.5630   27.6880 C   0  0  0  0  0  0  0  0  0  0  0  0
  -18.2210  -10.8140   26.8620 C   0  0  0  0  0  0  0  0  0  0  0  0
  -19.3130  -10.0130   27.3830 N   0  0  0  0  0  0  0  0  0  0  0  0
  -19.9300  -10.3220   28.5290 C   0  0  0  0  0  0  0  0  0  0  0  0
  -19.6830  -11.3610   29.1780 O   0  0  0  0  0  0  0  0  0  0  0  0
  -20.9200   -9.3100   29.0560 C   0  0  0  0  0  0  0  0  0  0  0  0
  -20.4170   -8.7850   30.4090 C   0  0  0  0  0  0  0  0  0  0  0  0
  -21.2470   -7.7160   30.9490 N   0  0  0  0  0  0  0  0  0  0  0  0
  -22.4440   -7.8920   31.4640 C   0  0  0  0  0  0  0  0  0  0  0  0
  -22.8380   -8.9850   31.8840 O   0  0  0  0  0  0  0  0  0  0  0  0
  -23.2820   -6.6200   31.6620 C   0  0  2  0  0  0  0  0  0  0  0  0
  -22.6440   -5.4990   31.0330 O   0  0  0  0  0  0  0  0  0  0  0  0
  -23.5270   -6.1580   33.1200 C   0  0  0  0  0  0  0  0  0  0  0  0
  -22.2030   -5.7260   33.7500 C   0  0  0  0  0  0  0  0  0  0  0  0
  -24.1520   -7.2850   33.9470 C   0  0  0  0  0  0  0  0  0  0  0  0
  -24.4860   -4.9770   33.1450 C   0  0  0  0  0  0  0  0  0  0  0  0
  -25.7820   -5.3790   32.5720 O   0  0  0  0  0  0  0  0  0  0  0  0
  -27.0480   -4.4640   32.9580 P   0  0  2  0  0  0  0  0  0  0  0  0
  -26.7150   -3.1550   32.2940 O   0  0  0  0  0  0  0  0  0  0  0  0
  -27.3450   -4.5330   34.4200 O   0  0  0  0  0  0  0  0  0  0  0  0
  -28.1410   -5.3360   32.1830 O   0  0  0  0  0  0  0  0  0  0  0  0
  -28.7270   -5.4290   30.6940 P   0  0  2  0  0  0  0  0  0  0  0  0
  -29.7010   -6.5480   30.8700 O   0  0  0  0  0  0  0  0  0  0  0  0
  -27.6340   -5.4060   29.7120 O   0  0  0  0  0  0  0  0  0  0  0  0
  -29.5270   -4.0280   30.6400 O   0  0  0  0  0  0  0  0  0  0  0  0
  -29.0430   -2.8810   29.9140 C   0  0  0  0  0  0  0  0  0  0  0  0
  -30.0890   -1.7720   29.8580 C   0  0  1  0  0  0  0  0  0  0  0  0
  -31.2810   -2.1770   29.1180 O   0  0  0  0  0  0  0  0  0  0  0  0
  -30.6390   -1.2610   31.1930 C   0  0  1  0  0  0  0  0  0  0  0  0
  -30.8960    0.1070   31.0000 O   0  0  0  0  0  0  0  0  0  0  0  0
  -30.6510    1.1100   32.2150 P   0  0  0  0  0  0  0  0  0  0  0  0
  -29.2860    1.0030   32.6780 O   0  0  0  0  0  0  0  0  0  0  0  0
  -30.8870    2.3270   31.3770 O   0  0  0  0  0  0  0  0  0  0  0  0
  -31.7510    0.8280   33.3280 O   0  0  0  0  0  0  0  0  0  0  0  0
  -31.9200   -2.0790   31.3680 C   0  0  1  0  0  0  0  0  0  0  0  0
  -32.7750   -1.5470   32.3570 O   0  0  0  0  0  0  0  0  0  0  0  0
  -32.4290   -2.0490   29.9240 C   0  0  2  0  0  0  0  0  0  0  0  0
  -33.3560   -3.1140   29.5530 N   0  0  0  0  0  0  0  0  0  0  0  0
  -33.3680   -4.4320   29.9470 C   0  0  0  0  0  0  0  0  0  0  0  0
  -34.3570   -5.1240   29.4350 N   0  0  0  0  0  0  0  0  0  0  0  0
  -35.0190   -4.2200   28.6160 C   0  0  0  0  0  0  0  0  0  0  0  0
  -34.4210   -2.9810   28.6770 C   0  0  0  0  0  0  0  0  0  0  0  0
  -34.8020   -1.8820   28.0060 N   0  0  0  0  0  0  0  0  0  0  0  0
  -35.8920   -2.1160   27.2700 C   0  0  0  0  0  0  0  0  0  0  0  0
  -36.5850   -3.2570   27.1250 N   0  0  0  0  0  0  0  0  0  0  0  0
  -36.1630   -4.3510   27.7900 C   0  0  0  0  0  0  0  0  0  0  0  0
  -36.8280   -5.4880   27.6590 N   0  0  0  0  0  0  0  0  0  0  0  0
  1  2  1  0
  2  3  1  0
  2  4  1  0
  2  5  1  0
  5  6  2  0
  5  7  1  0
  7  8  1  0
  8  9  1  0
  9 10  1  0
 10 11  1  0
 11 12  2  0
 11 13  1  0
 13 14  1  0
 14 15  1  0
 15 16  1  0
 16 17  2  0
 16 18  1  0
 18 19  1  6
 18 20  1  0
 20 21  1  0
 20 22  1  0
 20 23  1  0
 23 24  1  0
 24 25  1  0
 25 26  1  6
 25 27  2  0
 25 28  1  0
 28 29  1  0
 29 30  2  0
 29 31  1  6
 29 32  1  0
 32 33  1  0
 34 33  1  1
 34 35  1  0
 34 36  1  0
 36 37  1  6
 37 38  1  0
 38 39  2  0
 38 40  1  0
 38 41  1  0
 36 42  1  0
 42 43  1  1
 42 44  1  0
 35 44  1  0
 44 45  1  1
 45 46  1  0
 46 47  2  0
 47 48  1  0
 45 49  1  0
 48 49  2  0
 49 50  1  0
 50 51  2  0
 51 52  1  0
 48 53  1  0
 52 53  2  0
 53 54  1  0
M  END
$$$$
7PT3_3KK_B_702
     RDKit          3D

 54 56  0  0  0  0  0  0  0  0999 V2000
   -3.2620  -43.4900   23.1900 C   0  0  0  0  0  0  0  0  0  0  0  0
   -4.1220  -42.6410   22.2580 C   0  0  0  0  0  0  0  0  0  0  0  0
   -4.6310  -43.4420   21.0380 C   0  0  0  0  0  0  0  0  0  0  0  0
   -5.2830  -42.1810   22.9690 O   0  0  0  0  0  0  0  0  0  0  0  0
   -3.3240  -41.3900   21.8330 C   0  0  0  0  0  0  0  0  0  0  0  0
   -3.5270  -40.3140   22.3500 O   0  0  0  0  0  0  0  0  0  0  0  0
   -2.0840  -41.6080   20.5780 S   0  0  0  0  0  0  0  0  0  0  0  0
   -1.5940  -39.8850   20.3170 C   0  0  0  0  0  0  0  0  0  0  0  0
   -1.3150  -39.7100   18.8170 C   0  0  0  0  0  0  0  0  0  0  0  0
   -0.1780  -40.4870   18.3750 N   0  0  0  0  0  0  0  0  0  0  0  0
    1.0830  -40.1470   18.7100 C   0  0  0  0  0  0  0  0  0  0  0  0
    1.3560  -39.1110   19.3210 O   0  0  0  0  0  0  0  0  0  0  0  0
    2.1750  -41.1160   18.3430 C   0  0  0  0  0  0  0  0  0  0  0  0
    2.8260  -41.7440   19.5620 C   0  0  0  0  0  0  0  0  0  0  0  0
    3.6440  -42.8710   19.1550 N   0  0  0  0  0  0  0  0  0  0  0  0
    4.8130  -42.7220   18.5410 C   0  0  0  0  0  0  0  0  0  0  0  0
    5.3690  -41.6190   18.3990 O   0  0  0  0  0  0  0  0  0  0  0  0
    5.4670  -44.0130   18.0650 C   0  0  2  0  0  0  0  0  0  0  0  0
    4.5370  -45.0910   18.2120 O   0  0  0  0  0  0  0  0  0  0  0  0
    6.7820  -44.3810   18.7640 C   0  0  0  0  0  0  0  0  0  0  0  0
    6.4550  -44.7600   20.2160 C   0  0  0  0  0  0  0  0  0  0  0  0
    7.7500  -43.1920   18.7180 C   0  0  0  0  0  0  0  0  0  0  0  0
    7.5150  -45.5810   18.1240 C   0  0  0  0  0  0  0  0  0  0  0  0
    7.8110  -45.2730   16.7690 O   0  0  0  0  0  0  0  0  0  0  0  0
    8.8810  -46.1370   16.0070 P   0  0  1  0  0  0  0  0  0  0  0  0
   10.2260  -46.0910   16.7000 O   0  0  0  0  0  0  0  0  0  0  0  0
    8.2670  -47.4580   15.7050 O   0  0  0  0  0  0  0  0  0  0  0  0
    9.0520  -45.2400   14.6810 O   0  0  0  0  0  0  0  0  0  0  0  0
    8.2900  -45.1190   13.2980 P   0  0  2  0  0  0  0  0  0  0  0  0
    8.9750  -44.0020   12.6000 O   0  0  0  0  0  0  0  0  0  0  0  0
    6.8500  -45.1100   13.5880 O   0  0  0  0  0  0  0  0  0  0  0  0
    8.6140  -46.4670   12.5100 O   0  0  0  0  0  0  0  0  0  0  0  0
    7.7880  -47.6420   12.5770 C   0  0  0  0  0  0  0  0  0  0  0  0
    8.4100  -48.7800   11.8000 C   0  0  1  0  0  0  0  0  0  0  0  0
    8.5690  -48.4100   10.3950 O   0  0  0  0  0  0  0  0  0  0  0  0
    9.7960  -49.2900   12.2280 C   0  0  1  0  0  0  0  0  0  0  0  0
    9.7790  -50.6680   11.8610 O   0  0  0  0  0  0  0  0  0  0  0  0
   10.7290  -51.6350   12.7180 P   0  0  0  0  0  0  0  0  0  0  0  0
   10.4390  -52.9700   12.0280 O   0  0  0  0  0  0  0  0  0  0  0  0
   12.2000  -51.2740   12.7030 O   0  0  0  0  0  0  0  0  0  0  0  0
   10.1680  -51.5390   14.0600 O   0  0  0  0  0  0  0  0  0  0  0  0
   10.7560  -48.4990   11.3120 C   0  0  1  0  0  0  0  0  0  0  0  0
   12.0400  -49.1010   11.2130 O   0  0  0  0  0  0  0  0  0  0  0  0
    9.9330  -48.5260   10.0190 C   0  0  2  0  0  0  0  0  0  0  0  0
   10.2370  -47.4920    9.0300 N   0  0  0  0  0  0  0  0  0  0  0  0
   10.5970  -46.1760    9.2440 C   0  0  0  0  0  0  0  0  0  0  0  0
   10.7750  -45.4930    8.1450 N   0  0  0  0  0  0  0  0  0  0  0  0
   10.5660  -46.4300    7.1300 C   0  0  0  0  0  0  0  0  0  0  0  0
   10.2450  -47.6700    7.6540 C   0  0  0  0  0  0  0  0  0  0  0  0
    9.9620  -48.7990    6.9400 N   0  0  0  0  0  0  0  0  0  0  0  0
   10.1000  -48.5810    5.6340 C   0  0  0  0  0  0  0  0  0  0  0  0
   10.4380  -47.4580    4.9850 N   0  0  0  0  0  0  0  0  0  0  0  0
   10.6690  -46.3440    5.7130 C   0  0  0  0  0  0  0  0  0  0  0  0
   10.9580  -45.2150    5.0760 N   0  0  0  0  0  0  0  0  0  0  0  0
  1  2  1  0
  2  3  1  0
  2  4  1  0
  2  5  1  0
  5  6  2  0
  5  7  1  0
  7  8  1  0
  8  9  1  0
  9 10  1  0
 10 11  1  0
 11 12  2  0
 11 13  1  0
 13 14  1  0
 14 15  1  0
 15 16  1  0
 16 17  2  0
 16 18  1  0
 18 19  1  1
 18 20  1  0
 20 21  1  0
 20 22  1  0
 20 23  1  0
 23 24  1  0
 24 25  1  0
 25 26  1  1
 25 27  2  0
 25 28  1  0
 28 29  1  0
 29 30  2  0
 29 31  1  1
 29 32  1  0
 32 33  1  0
 34 33  1  1
 34 35  1  0
 34 36  1  0
 36 37  1  6
 37 38  1  0
 38 39  2  0
 38 40  1  0
 38 41  1  0
 36 42  1  0
 42 43  1  6
 42 44  1  0
 35 44  1  0
 44 45  1  6
 45 46  1  0
 46 47  2  0
 47 48  1  0
 45 49  1  0
 48 49  2  0
 49 50  1  0
 50 51  2  0
 51 52  1  0
 48 53  1  0
 52 53  2  0
 53 54  1  0
M  END
$$$$
