7PT3_3KK_A_702
     RDKit          3D

 54 56  0  0  0  0  0  0  0  0999 V2000
  -13.5640   -7.0800   28.0730 C   0  0  0  0  0  0  0  0  0  0  0  0
  -13.7840   -7.9330   26.8360 C   0  0  0  0  0  0  0  0  0  0  0  0
  -14.4670   -7.1260   25.7140 C   0  0  0  0  0  0  0  0  0  0  0  0
  -12.4660   -8.3360   26.4050 O   0  0  0  0  0  0  0  0  0  0  0  0
  -14.6360   -9.1770   27.2310 C   0  0  0  0  0  0  0  0  0  0  0  0
  -14.1760  -10.2850   27.4220 O   0  0  0  0  0  0  0  0  0  0  0  0
  -16.3660   -8.8670   27.4190 S   0  0  0  0  0  0  0  0  0  0  0  0
  -16.9570  -10.5630   27.6880 C   0  0  0  0  0  0  0  0  0  0  0  0
  -18.2210  -10.8140   26.8620 C   0  0  0  0  0  0  0  0  0  0  0  0
  -19.3130  -10.0130   27.3830 N   0  0  0  0  0  0  0  0  0  0  0  0
  -19.9300  -10.3220   28.5290 C   0  0  0  0  0  0  0  0  0  0  0  0
  -19.6830  -11.3610   29.1780 O   0  0  0  0  0  0  0  0  0  0  0  0
  -20.9200   -9.3100   29.0560 C   0  0  0  0  0  0  0  0  0  0  0  0
  -20.4170   -8.7850   30.4090 C   0  0  0  0  0  0  0  0  0  0  0  0
  -21.2470   -7.7160   30.9490 N   0  0  0  0  0  0  0  0  0  0  0  0
  -22.4440   -7.8920   31.4640 C   0  0  0  0  0  0  0  0  0  0  0  0
  -22.8380   -8.9850   31.8840 O   0  0  0  0  0  0  0  0  0  0  0  0
  -23.2820   -6.6200   31.6620 C   0  0  2  0  0  0  0  0  0  0  0  0
  -22.6440   -5.4990   31.0330 O   0  0  0  0  0  0  0  0  0  0  0  0
  -23.5270   -6.1580   33.1200 C   0  0  0  0  0  0  0  0  0  0  0  0
  -22.2030   -5.7260   33.7500 C   0  0  0  0  0  0  0  0  0  0  0  0
  -24.1520   -7.2850   33.9470 C   0  0  0  0  0  0  0  0  0  0  0  0
  -24.4860   -4.9770   33.1450 C   0  0  0  0  0  0  0  0  0  0  0  0
  -25.7820   -5.3790   32.5720 O   0  0  0  0  0  0  0  0  0  0  0  0
  -27.0480   -4.4640   32.9580 P   0  0  2  0  0  0  0  0  0  0  0  0
  -26.7150   -3.1550   32.2940 O   0  0  0  0  0  0  0  0  0  0  0  0
  -27.3450   -4.5330   34.4200 O   0  0  0  0  0  0  0  0  0  0  0  0
  -28.1410   -5.3360   32.1830 O   0  0  0  0  0  0  0  0  0  0  0  0
  -28.7270   -5.4290   30.6940 P   0  0  2  0  0  0  0  0  0  0  0  0
  -29.7010   -6.5480   30.8700 O   0  0  0  0  0  0  0  0  0  0  0  0
  -27.6340   -5.4060   29.7120 O   0  0  0  0  0  0  0  0  0  0  0  0
  -29.5270   -4.0280   30.6400 O   0  0  0  0  0  0  0  0  0  0  0  0
  -29.0430   -2.8810   29.9140 C   0  0  0  0  0  0  0  0  0  0  0  0
  -30.0890   -1.7720   29.8580 C   0  0  1  0  0  0  0  0  0  0  0  0
  -31.2810   -2.1770   29.1180 O   0  0  0  0  0  0  0  0  0  0  0  0
  -30.6390   -1.2610   31.1930 C   0  0  1  0  0  0  0  0  0  0  0  0
  -30.8960    0.1070   31.0000 O   0  0  0  0  0  0  0  0  0  0  0  0
  -30.6510    1.1100   32.2150 P   0  0  0  0  0  0  0  0  0  0  0  0
  -29.2860    1.0030   32.6780 O   0  0  0  0  0  0  0  0  0  0  0  0
  -30.8870    2.3270   31.3770 O   0  0  0  0  0  0  0  0  0  0  0  0
  -31.7510    0.8280   33.3280 O   0  0  0  0  0  0  0  0  0  0  0  0
  -31.9200   -2.0790   31.3680 C   0  0  1  0  0  0  0  0  0  0  0  0
  -32.7750   -1.5470   32.3570 O   0  0  0  0  0  0  0  0  0  0  0  0
  -32.4290   -2.0490   29.9240 C   0  0  2  0  0  0  0  0  0  0  0  0
  -33.3560   -3.1140   29.5530 N   0  0  0  0  0  0  0  0  0  0  0  0
  -33.3680   -4.4320   29.9470 C   0  0  0  0  0  0  0  0  0  0  0  0
  -34.3570   -5.1240   29.4350 N   0  0  0  0  0  0  0  0  0  0  0  0
  -35.0190   -4.2200   28.6160 C   0  0  0  0  0  0  0  0  0  0  0  0
  -34.4210   -2.9810   28.6770 C   0  0  0  0  0  0  0  0  0  0  0  0
  -34.8020   -1.8820   28.0060 N   0  0  0  0  0  0  0  0  0  0  0  0
  -35.8920   -2.1160   27.2700 C   0  0  0  0  0  0  0  0  0  0  0  0
  -36.5850   -3.2570   27.1250 N   0  0  0  0  0  0  0  0  0  0  0  0
  -36.1630   -4.3510   27.7900 C   0  0  0  0  0  0  0  0  0  0  0  0
  -36.8280   -5.4880   27.6590 N   0  0  0  0  0  0  0  0  0  0  0  0
  1  2  1  0
  2  3  1  0
  2  4  1  0
  2  5  1  0
  5  6  2  0
  5  7  1  0
  7  8  1  0
  8  9  1  0
  9 10  1  0
 10 11  1  0
 11 12  2  0
 11 13  1  0
 13 14  1  0
 14 15  1  0
 15 16  1  0
 16 17  2  0
 16 18  1  0
 18 19  1  6
 18 20  1  0
 20 21  1  0
 20 22  1  0
 20 23  1  0
 23 24  1  0
 24 25  1  0
 25 26  1  6
 25 27  2  0
 25 28  1  0
 28 29  1  0
 29 30  2  0
 29 31  1  6
 29 32  1  0
 32 33  1  0
 34 33  1  1
 34 35  1  0
 34 36  1  0
 36 37  1  6
 37 38  1  0
 38 39  2  0
 38 40  1  0
 38 41  1  0
 36 42  1  0
 42 43  1  1
 42 44  1  0
 35 44  1  0
 44 45  1  1
 45 46  1  0
 46 47  2  0
 47 48  1  0
 45 49  1  0
 48 49  2  0
 49 50  1  0
 50 51  2  0
 51 52  1  0
 48 53  1  0
 52 53  2  0
 53 54  1  0
M  END
$$$$
