
     RDKit          3D

 13 13  0  0  0  0  0  0  0  0999 V2000
   -3.3761   -5.8597  107.2504 C   0  0  1  0  0  0  0  0  0  0  0  0
   -2.8673   -4.5597  107.8864 C   0  0  1  0  0  0  0  0  0  0  0  0
   -1.5109   -4.2163  107.2854 C   0  0  2  0  0  0  0  0  0  0  0  0
   -0.5375   -5.3905  107.4203 C   0  0  1  0  0  0  0  0  0  0  0  0
   -1.1777   -6.6747  106.8773 C   0  0  1  0  0  0  0  0  0  0  0  0
   -0.2755   -7.8473  107.2338 C   0  0  0  0  0  0  0  0  0  0  0  0
   -3.7745   -3.4730  107.6518 O   0  0  0  0  0  0  0  0  0  0  0  0
   -0.9500   -3.0643  107.9345 O   0  0  0  0  0  0  0  0  0  0  0  0
    0.6556   -5.0581  106.7001 O   0  0  0  0  0  0  0  0  0  0  0  0
   -2.4651   -6.9199  107.4672 O   0  0  0  0  0  0  0  0  0  0  0  0
   -0.4391   -8.6480  108.1420 O   0  0  0  0  0  0  0  0  0  0  0  0
   -4.6076   -6.1941  107.8742 O   0  0  0  0  0  0  0  0  0  0  0  0
    0.7911   -7.9643  106.4145 O   0  0  0  0  0  0  0  0  0  0  0  0
  1  2  1  0
  2  3  1  0
  3  4  1  0
  4  5  1  0
  5  6  1  1
  2  7  1  6
  3  8  1  1
  4  9  1  6
  1 10  1  0
  5 10  1  0
  6 11  2  0
  1 12  1  1
  6 13  1  0
M  END
