7OSO_0V1_A_504
     RDKit          3D

 17 16  0  0  0  0  0  0  0  0999 V2000
   28.5395    5.4812    9.9383 C   0  0  1  0  0  0  0  0  0  0  0  0
   29.4399    6.2524   10.9155 C   0  0  2  0  0  0  0  0  0  0  0  0
   29.9231    7.6109   10.3593 C   0  0  1  0  0  0  0  0  0  0  0  0
   31.0995    7.4922    9.3800 C   0  0  1  0  0  0  0  0  0  0  0  0
   31.8574    8.6712    9.3930 O   0  0  0  0  0  0  0  0  0  0  0  0
   30.5374    5.4466   11.2598 O   0  0  0  0  0  0  0  0  0  0  0  0
   27.2505    5.3184   10.4680 O   0  0  0  0  0  0  0  0  0  0  0  0
   28.5091    5.9776    8.9416 H   0  0  0  0  0  0  0  0  0  0  0  0
   28.9757    4.4722    9.7785 H   0  0  0  0  0  0  0  0  0  0  0  0
   28.8342    6.4540   11.8302 H   0  0  0  0  0  0  0  0  0  0  0  0
   29.0805    8.1362    9.8601 H   0  0  0  0  0  0  0  0  0  0  0  0
   30.2367    8.2458   11.2167 H   0  0  0  0  0  0  0  0  0  0  0  0
   31.7425    6.6210    9.6409 H   0  0  0  0  0  0  0  0  0  0  0  0
   30.7177    7.3418    8.3494 H   0  0  0  0  0  0  0  0  0  0  0  0
   31.4496    9.2793    8.7223 H   0  0  0  0  0  0  0  0  0  0  0  0
   31.3517    6.0018   11.1379 H   0  0  0  0  0  0  0  0  0  0  0  0
   26.7073    6.0839   10.1451 H   0  0  0  0  0  0  0  0  0  0  0  0
  1  2  1  0
  2  3  1  0
  3  4  1  0
  4  5  1  0
  2  6  1  0
  1  7  1  0
  1  8  1  6
  1  9  1  0
  2 10  1  1
  3 11  1  6
  3 12  1  0
  4 13  1  1
  4 14  1  0
  5 15  1  0
  6 16  1  0
  7 17  1  0
M  END
