7VC5_9SF_A_902
     RDKit          3D

 41 43  0  0  0  0  0  0  0  0999 V2000
   15.0520  -15.6028   -4.0599 N   0  0  0  0  0  0  0  0  0  0  0  0
   15.2977  -14.3448   -4.1061 C   0  0  0  0  0  0  0  0  0  0  0  0
   13.8367  -15.7983   -0.5581 C   0  0  0  0  0  0  0  0  0  0  0  0
   13.5948  -17.1575   -0.4674 C   0  0  0  0  0  0  0  0  0  0  0  0
   13.8197  -17.9807   -1.5528 C   0  0  0  0  0  0  0  0  0  0  0  0
   14.2894  -17.4599   -2.7477 C   0  0  0  0  0  0  0  0  0  0  0  0
   14.3187  -15.2641   -1.7531 C   0  0  0  0  0  0  0  0  0  0  0  0
   15.4233  -12.0344   -3.2987 C   0  0  0  0  0  0  0  0  0  0  0  0
   16.1710   -9.2832   -4.3435 C   0  0  1  0  0  0  0  0  0  0  0  0
   16.5251  -11.8263   -4.3326 C   0  0  0  0  0  0  0  0  0  0  0  0
   17.1583  -10.4570   -4.3455 C   0  0  0  0  0  0  0  0  0  0  0  0
   16.8193   -7.9178   -4.5441 C   0  0  1  0  0  0  0  0  0  0  0  0
   14.6206  -13.8336   -1.8509 C   0  0  0  0  0  0  0  0  0  0  0  0
   15.8063   -6.8084   -4.3238 C   0  0  0  0  0  0  0  0  0  0  0  0
   14.6416   -6.9757   -5.3018 C   0  0  0  0  0  0  0  0  0  0  0  0
   14.0818   -8.3939   -5.2291 C   0  0  0  0  0  0  0  0  0  0  0  0
   14.5468  -16.0941   -2.8565 C   0  0  0  0  0  0  0  0  0  0  0  0
   15.1241   -9.4229   -5.3669 N   0  0  0  0  0  0  0  0  0  0  0  0
   15.1128  -13.4442   -3.0914 N   0  0  0  0  0  4  0  0  0  0  0  0
   14.4754  -13.0313   -0.9458 O   0  0  0  0  0  0  0  0  0  0  0  0
   16.8550  -12.7007   -5.1057 O   0  0  0  0  0  0  0  0  0  0  0  0
   17.9331   -7.7726   -3.6634 O   0  0  0  0  0  0  0  0  0  0  0  0
   15.6712  -13.9755   -4.9944 H   0  0  0  0  0  0  0  0  0  0  0  0
   13.6618  -15.1841    0.2525 H   0  0  0  0  0  0  0  0  0  0  0  0
   13.2441  -17.5583    0.4166 H   0  0  0  0  0  0  0  0  0  0  0  0
   13.6363  -18.9932   -1.4733 H   0  0  0  0  0  0  0  0  0  0  0  0
   14.4484  -18.0818   -3.5557 H   0  0  0  0  0  0  0  0  0  0  0  0
   15.7415  -11.6125   -2.3683 H   0  0  0  0  0  0  0  0  0  0  0  0
   14.5388  -11.5564   -3.6646 H   0  0  0  0  0  0  0  0  0  0  0  0
   15.7480   -9.3250   -3.3615 H   0  0  0  0  0  0  0  0  0  0  0  0
   17.7631  -10.3799   -5.2248 H   0  0  0  0  0  0  0  0  0  0  0  0
   17.7164  -10.3783   -3.4360 H   0  0  0  0  0  0  0  0  0  0  0  0
   17.1712   -7.8466   -5.5521 H   0  0  0  0  0  0  0  0  0  0  0  0
   15.4384   -6.8562   -3.3202 H   0  0  0  0  0  0  0  0  0  0  0  0
   16.2754   -5.8610   -4.4885 H   0  0  0  0  0  0  0  0  0  0  0  0
   13.8689   -6.2789   -5.0517 H   0  0  0  0  0  0  0  0  0  0  0  0
   14.9950   -6.7937   -6.2952 H   0  0  0  0  0  0  0  0  0  0  0  0
   13.5966   -8.5224   -4.2841 H   0  0  0  0  0  0  0  0  0  0  0  0
   13.3988   -8.5142   -6.0439 H   0  0  0  0  0  0  0  0  0  0  0  0
   14.6935  -10.3429   -5.2748 H   0  0  0  0  0  0  0  0  0  0  0  0
   17.6289   -7.8350   -2.7445 H   0  0  0  0  0  0  0  0  0  0  0  0
  1  2  4  0
  3  4  4  0
  4  5  4  0
  5  6  4  0
  3  7  4  0
  8 10  1  0
  9 11  1  0
 10 11  1  0
  9 12  1  0
  7 13  4  0
 12 14  1  0
 14 15  1  0
 15 16  1  0
  1 17  4  0
  7 17  4  0
  6 17  4  0
 16 18  1  0
  9 18  1  0
  8 19  1  0
  2 19  4  0
 13 19  4  0
 13 20  2  0
 10 21  2  0
 12 22  1  0
  2 23  1  0
  3 24  1  0
  4 25  1  0
  5 26  1  0
  6 27  1  0
  8 28  1  0
  8 29  1  0
  9 30  1  6
 11 31  1  0
 11 32  1  0
 12 33  1  1
 14 34  1  0
 14 35  1  0
 15 36  1  0
 15 37  1  0
 16 38  1  0
 16 39  1  0
 18 40  1  0
 22 41  1  0
M  CHG  1  19   1
M  END
