7P4V_DAT_A_201
     RDKit          3D

 41 43  0  0  0  0  0  0  0  0999 V2000
    2.2418    4.5882   -0.1281 P   0  0  0  0  0  5  0  0  0  0  0  0
    3.4758    5.2682   -0.6768 O   0  0  0  0  0  0  0  0  0  0  0  0
    1.1828    5.7754    0.4476 O   0  0  0  0  0  0  0  0  0  0  0  0
    2.6801    3.5780    1.1591 O   0  0  0  0  0  0  0  0  0  0  0  0
    2.4205    2.3581   -1.7278 P   0  0  1  0  0  5  0  0  0  0  0  0
    1.8794    1.7032   -2.9795 O   0  0  0  0  0  0  0  0  0  0  0  0
    4.0230    2.8231   -2.0176 O   0  0  0  0  0  0  0  0  0  0  0  0
    1.4603    3.7168   -1.3648 O   0  0  0  0  0  0  0  0  0  0  0  0
    2.3888    1.2401   -0.4396 O   0  0  0  0  0  0  0  0  0  0  0  0
    1.0549    0.8350   -0.2335 C   0  0  0  0  0  0  0  0  0  0  0  0
    0.9830   -0.0812    0.9941 C   0  0  1  0  0  0  0  0  0  0  0  0
   -0.3725   -0.3572    1.2806 O   0  0  0  0  0  0  0  0  0  0  0  0
    1.7330   -1.4006    0.7709 C   0  0  1  0  0  0  0  0  0  0  0  0
    2.3963   -1.7913    1.9455 O   0  0  0  0  0  0  0  0  0  0  0  0
    0.6263   -2.3680    0.4725 C   0  0  0  0  0  0  0  0  0  0  0  0
   -0.5625   -1.7513    1.1865 C   0  0  2  0  0  0  0  0  0  0  0  0
   -1.8050   -2.0423    0.4705 N   0  0  0  0  0  0  0  0  0  0  0  0
   -2.3099   -1.4078   -0.6204 C   0  0  0  0  0  0  0  0  0  0  0  0
   -3.4443   -1.9859   -1.1042 N   0  0  0  0  0  0  0  0  0  0  0  0
   -3.6263   -3.0263   -0.2690 C   0  0  0  0  0  0  0  0  0  0  0  0
   -4.6187   -3.9998   -0.2717 C   0  0  0  0  0  0  0  0  0  0  0  0
   -5.6691   -4.0010   -1.2384 N   0  0  0  0  0  0  0  0  0  0  0  0
   -4.5555   -4.9707    0.6884 N   0  0  0  0  0  0  0  0  0  0  0  0
   -3.5493   -4.9895    1.6212 C   0  0  0  0  0  0  0  0  0  0  0  0
   -2.5771   -4.0281    1.6130 N   0  0  0  0  0  0  0  0  0  0  0  0
   -2.6464   -3.0647    0.6625 C   0  0  0  0  0  0  0  0  0  0  0  0
    0.3607    5.2815    0.6935 H   0  0  0  0  0  0  0  0  0  0  0  0
    1.8205    3.2715    1.5440 H   0  0  0  0  0  0  0  0  0  0  0  0
    4.4858    1.9878   -2.2773 H   0  0  0  0  0  0  0  0  0  0  0  0
    0.3996    1.7143   -0.0369 H   0  0  0  0  0  0  0  0  0  0  0  0
    0.6687    0.2824   -1.1203 H   0  0  0  0  0  0  0  0  0  0  0  0
    1.4199    0.4678    1.8582 H   0  0  0  0  0  0  0  0  0  0  0  0
    2.4532   -1.3627   -0.0807 H   0  0  0  0  0  0  0  0  0  0  0  0
    3.2256   -1.2481    1.9941 H   0  0  0  0  0  0  0  0  0  0  0  0
    0.8439   -3.3936    0.8436 H   0  0  0  0  0  0  0  0  0  0  0  0
    0.4513   -2.4031   -0.6266 H   0  0  0  0  0  0  0  0  0  0  0  0
   -0.6235   -2.1612    2.2199 H   0  0  0  0  0  0  0  0  0  0  0  0
   -1.8523   -0.5376   -1.0722 H   0  0  0  0  0  0  0  0  0  0  0  0
   -6.4046   -4.7418   -1.2129 H   0  0  0  0  0  0  0  0  0  0  0  0
   -5.7186   -3.2673   -1.9792 H   0  0  0  0  0  0  0  0  0  0  0  0
   -3.5243   -5.7713    2.3676 H   0  0  0  0  0  0  0  0  0  0  0  0
  1  2  2  0
  1  3  1  0
  1  4  1  0
  5  6  2  0
  5  7  1  6
  1  8  1  0
  5  8  1  0
  5  9  1  0
  9 10  1  0
 11 10  1  0
 11 12  1  0
 11 13  1  0
 13 14  1  0
 13 15  1  0
 12 16  1  0
 15 16  1  0
 16 17  1  0
 17 18  1  0
 18 19  2  0
 19 20  1  0
 20 21  1  0
 21 22  1  0
 21 23  2  0
 23 24  1  0
 24 25  2  0
 17 26  1  0
 20 26  2  0
 25 26  1  0
  3 27  1  0
  4 28  1  0
  7 29  1  0
 10 30  1  0
 10 31  1  0
 11 32  1  1
 13 33  1  6
 14 34  1  0
 15 35  1  0
 15 36  1  0
 16 37  1  1
 18 38  1  0
 22 39  1  0
 22 40  1  0
 24 41  1  0
M  END
