7UJ5_DGL_D_301
     RDKit          3D

 19 18  0  0  0  0  0  0  0  0999 V2000
   -1.7753   -1.6499   -0.8814 N   0  0  0  0  0  0  0  0  0  0  0  0
   -1.2461   -0.4124   -0.3041 C   0  0  1  0  0  0  0  0  0  0  0  0
   -1.4467   -0.4294    1.1859 C   0  0  0  0  0  0  0  0  0  0  0  0
   -0.9649   -1.3629    1.8831 O   0  0  0  0  0  0  0  0  0  0  0  0
    0.2419   -0.2233   -0.6721 C   0  0  0  0  0  0  0  0  0  0  0  0
    0.7693    1.1570   -0.2578 C   0  0  0  0  0  0  0  0  0  0  0  0
    2.1983    1.3159   -0.6704 C   0  0  0  0  0  0  0  0  0  0  0  0
    2.4801    1.8051   -1.7970 O   0  0  0  0  0  0  0  0  0  0  0  0
    3.2154    0.8818    0.1739 O   0  0  0  0  0  0  0  0  0  0  0  0
   -2.1551    0.5988    1.7999 O   0  0  0  0  0  0  0  0  0  0  0  0
   -1.1517   -2.4503   -0.6243 H   0  0  0  0  0  0  0  0  0  0  0  0
   -1.7583   -1.5667   -1.9241 H   0  0  0  0  0  0  0  0  0  0  0  0
   -1.8271    0.4389   -0.7250 H   0  0  0  0  0  0  0  0  0  0  0  0
    0.8545   -1.0179   -0.1904 H   0  0  0  0  0  0  0  0  0  0  0  0
    0.3542   -0.3293   -1.7740 H   0  0  0  0  0  0  0  0  0  0  0  0
    0.1570    1.9545   -0.7327 H   0  0  0  0  0  0  0  0  0  0  0  0
    0.7004    1.2775    0.8445 H   0  0  0  0  0  0  0  0  0  0  0  0
    4.1876    0.9673   -0.0975 H   0  0  0  0  0  0  0  0  0  0  0  0
   -2.2936    0.6070    2.8034 H   0  0  0  0  0  0  0  0  0  0  0  0
  2  1  1  0
  2  3  1  0
  3  4  2  0
  2  5  1  0
  5  6  1  0
  6  7  1  0
  7  8  2  0
  7  9  1  0
  3 10  1  0
  1 11  1  0
  1 12  1  0
  2 13  1  6
  5 14  1  0
  5 15  1  0
  6 16  1  0
  6 17  1  0
  9 18  1  0
 10 19  1  0
M  END
