1T40_ID5_A_320
     RDKit          3D

 38 40  0  0  0  0  0  0  0  0999 V2000
    1.5592   -4.0207    0.8554 C   0  0  0  0  0  0  0  0  0  0  0  0
    2.4699   -2.3821    2.9273 C   0  0  0  0  0  0  0  0  0  0  0  0
    1.3975   -2.6234    0.7535 C   0  0  0  0  0  0  0  0  0  0  0  0
    2.1712   -4.5841    1.9770 C   0  0  0  0  0  0  0  0  0  0  0  0
    2.6310   -3.7659    3.0079 C   0  0  0  0  0  0  0  0  0  0  0  0
    1.8386   -1.7992    1.8147 C   0  0  0  0  0  0  0  0  0  0  0  0
   -4.6284    2.4395   -4.2574 F   0  0  0  0  0  0  0  0  0  0  0  0
    2.3261   -5.9286    2.0603 F   0  0  0  0  0  0  0  0  0  0  0  0
    1.6751   -0.3279    1.7693 C   0  0  0  0  0  0  0  0  0  0  0  0
   -0.8749    2.0288    0.2619 C   0  0  0  0  0  0  0  0  0  0  0  0
   -5.3202    3.1564    0.4291 F   0  0  0  0  0  0  0  0  0  0  0  0
    0.8299   -2.0257   -0.3868 O   0  0  0  0  0  0  0  0  0  0  0  0
    2.5809    0.4107    2.2443 O   0  0  0  0  0  0  0  0  0  0  0  0
    0.4043    1.6996    0.9612 C   0  0  0  0  0  0  0  0  0  0  0  0
    0.3873   -2.7147   -1.5554 C   0  0  0  0  0  0  0  0  0  0  0  0
   -1.0387    1.9041   -1.0781 N   0  0  0  0  0  0  0  0  0  0  0  0
   -2.3105    2.4658    1.0479 S   0  0  0  0  0  0  0  0  0  0  0  0
   -1.9680    1.8246   -3.7788 F   0  0  0  0  0  0  0  0  0  0  0  0
   -3.1645    2.5246   -0.3964 C   0  0  0  0  0  0  0  0  0  0  0  0
   -4.1423    2.4663   -2.9919 C   0  0  0  0  0  0  0  0  0  0  0  0
   -2.3154    2.1903   -1.4401 C   0  0  0  0  0  0  0  0  0  0  0  0
   -4.5061    2.8351   -0.6066 C   0  0  0  0  0  0  0  0  0  0  0  0
   -4.9956    2.8053   -1.9222 C   0  0  0  0  0  0  0  0  0  0  0  0
   -2.7915    2.1546   -2.7527 C   0  0  0  0  0  0  0  0  0  0  0  0
    1.5543   -3.2228   -2.3409 C   0  0  0  0  0  0  0  0  0  0  0  0
    2.6480   -2.3943   -2.5719 O   0  0  0  0  0  0  0  0  0  0  0  0
    1.5338   -4.3875   -2.8207 O   0  0  0  0  0  0  0  0  0  0  0  0
    0.4884    0.2643    1.2223 N   0  0  0  0  0  0  0  0  0  0  0  0
    1.2247   -4.6817    0.0688 H   0  0  0  0  0  0  0  0  0  0  0  0
    2.8244   -1.7652    3.7442 H   0  0  0  0  0  0  0  0  0  0  0  0
    3.1101   -4.2038    3.8742 H   0  0  0  0  0  0  0  0  0  0  0  0
    0.4626    2.2574    1.9202 H   0  0  0  0  0  0  0  0  0  0  0  0
    1.2557    2.0104    0.3181 H   0  0  0  0  0  0  0  0  0  0  0  0
   -0.3061   -3.5384   -1.2797 H   0  0  0  0  0  0  0  0  0  0  0  0
   -0.1755   -2.0011   -2.1921 H   0  0  0  0  0  0  0  0  0  0  0  0
   -6.0338    3.0425   -2.1155 H   0  0  0  0  0  0  0  0  0  0  0  0
    3.4416   -2.7199   -3.1105 H   0  0  0  0  0  0  0  0  0  0  0  0
   -0.3456   -0.3421    1.0480 H   0  0  0  0  0  0  0  0  0  0  0  0
  1  3  2  0
  1  4  1  0
  2  5  1  0
  4  5  2  0
  2  6  2  0
  3  6  1  0
  4  8  1  0
  6  9  1  0
  3 12  1  0
  9 13  2  0
 10 14  1  0
 12 15  1  0
 10 16  2  0
 10 17  1  0
 17 19  1  0
  7 20  1  0
 16 21  1  0
 19 21  2  0
 11 22  1  0
 19 22  1  0
 20 23  1  0
 22 23  2  0
 18 24  1  0
 20 24  2  0
 21 24  1  0
 15 25  1  0
 25 26  1  0
 25 27  2  0
  9 28  1  0
 14 28  1  0
  1 29  1  0
  2 30  1  0
  5 31  1  0
 14 32  1  0
 14 33  1  0
 15 34  1  0
 15 35  1  0
 23 36  1  0
 26 37  1  0
 28 38  1  0
M  END
