7UEY_N0R_A_403
     RDKit          3D

 47 49  0  0  0  0  0  0  0  0999 V2000
    0.0045   -3.3556    1.0534 C   0  0  0  0  0  0  0  0  0  0  0  0
    1.2046   -4.0673    1.6955 C   0  0  0  0  0  0  0  0  0  0  0  0
    0.3131   -1.8199    3.0478 C   0  0  0  0  0  0  0  0  0  0  0  0
    1.8218   -1.8551    2.7986 C   0  0  0  0  0  0  0  0  0  0  0  0
   -2.9830    1.9460   -2.1713 C   0  0  0  0  0  0  0  0  0  0  0  0
   -1.6367    1.5683   -2.0612 C   0  0  0  0  0  0  0  0  0  0  0  0
   -1.1568    0.9864   -0.8846 C   0  0  0  0  0  0  0  0  0  0  0  0
   -2.0124    0.7952    0.2111 C   0  0  0  0  0  0  0  0  0  0  0  0
   -1.4997    0.1348    1.4640 C   0  0  0  0  0  0  0  0  0  0  0  0
   -1.4905   -1.3646    1.3196 C   0  0  0  0  0  0  0  0  0  0  0  0
    3.6323   -3.4369    2.0000 C   0  0  0  0  0  0  0  0  0  0  0  0
    6.2847   -4.1842    1.7704 C   0  0  0  0  0  0  0  0  0  0  0  0
    5.9765   -2.8460    2.0025 C   0  0  0  0  0  0  0  0  0  0  0  0
    4.6415   -2.4658    2.1175 C   0  0  0  0  0  0  0  0  0  0  0  0
   -4.7668    2.3861   -3.9239 C   0  0  0  0  0  0  0  0  0  0  0  0
   -5.2062    3.1997   -5.1021 C   0  0  0  0  0  0  0  0  0  0  0  0
   -3.3573    1.1834    0.1090 C   0  0  0  0  0  0  0  0  0  0  0  0
   -3.8370    1.7646   -1.0688 C   0  0  0  0  0  0  0  0  0  0  0  0
   -0.3915   -2.1574    1.8058 N   0  0  0  0  0  0  0  0  0  0  0  0
    2.2305   -3.0944    2.1110 N   0  0  0  0  0  0  0  0  0  0  0  0
    4.0013   -4.7295    1.7735 N   0  0  0  0  0  0  0  0  0  0  0  0
    5.2810   -5.0913    1.6627 N   0  0  0  0  0  0  0  0  0  0  0  0
   -3.4456    2.5587   -3.3873 N   0  0  0  0  0  0  0  0  0  0  0  0
   -5.5376    1.5009   -3.4638 O   0  0  0  0  0  0  0  0  0  0  0  0
   -4.8099    2.5745   -6.2917 O   0  0  0  0  0  0  0  0  0  0  0  0
   -2.4683   -1.9364    0.7633 O   0  0  0  0  0  0  0  0  0  0  0  0
    7.9516   -4.7015    1.6179 Cl  0  0  0  0  0  0  0  0  0  0  0  0
    0.2802   -3.0547    0.0190 H   0  0  0  0  0  0  0  0  0  0  0  0
   -0.8493   -4.0651    0.9969 H   0  0  0  0  0  0  0  0  0  0  0  0
    0.8670   -4.6415    2.5854 H   0  0  0  0  0  0  0  0  0  0  0  0
    1.6119   -4.7895    0.9550 H   0  0  0  0  0  0  0  0  0  0  0  0
    0.0491   -2.5665    3.8282 H   0  0  0  0  0  0  0  0  0  0  0  0
    0.0212   -0.8237    3.4395 H   0  0  0  0  0  0  0  0  0  0  0  0
    2.0953   -0.9805    2.1700 H   0  0  0  0  0  0  0  0  0  0  0  0
    2.3462   -1.7752    3.7755 H   0  0  0  0  0  0  0  0  0  0  0  0
   -0.9612    1.7127   -2.8952 H   0  0  0  0  0  0  0  0  0  0  0  0
   -0.1183    0.6834   -0.8271 H   0  0  0  0  0  0  0  0  0  0  0  0
   -0.4714    0.5082    1.6583 H   0  0  0  0  0  0  0  0  0  0  0  0
   -2.1272    0.4106    2.3388 H   0  0  0  0  0  0  0  0  0  0  0  0
    6.7628   -2.1068    2.0892 H   0  0  0  0  0  0  0  0  0  0  0  0
    4.4089   -1.4235    2.2862 H   0  0  0  0  0  0  0  0  0  0  0  0
   -6.3129    3.2914   -5.0981 H   0  0  0  0  0  0  0  0  0  0  0  0
   -4.7838    4.2281   -5.0380 H   0  0  0  0  0  0  0  0  0  0  0  0
   -4.0334    1.0410    0.9429 H   0  0  0  0  0  0  0  0  0  0  0  0
   -4.8683    2.0893   -1.1071 H   0  0  0  0  0  0  0  0  0  0  0  0
   -2.7519    3.0842   -3.9664 H   0  0  0  0  0  0  0  0  0  0  0  0
   -3.8434    2.7686   -6.4059 H   0  0  0  0  0  0  0  0  0  0  0  0
  1  2  1  0
  3  4  1  0
  5  6  2  0
  6  7  1  0
  7  8  2  0
  8  9  1  0
  9 10  1  0
 12 13  2  0
 13 14  1  0
 11 14  2  0
 15 16  1  0
  8 17  1  0
 17 18  2  0
  5 18  1  0
  1 19  1  0
  3 19  1  0
 10 19  1  0
 11 20  1  0
  2 20  1  0
  4 20  1  0
 11 21  1  0
 12 22  1  0
 21 22  2  0
  5 23  1  0
 15 23  1  0
 15 24  2  0
 16 25  1  0
 10 26  2  0
 12 27  1  0
  1 28  1  0
  1 29  1  0
  2 30  1  0
  2 31  1  0
  3 32  1  0
  3 33  1  0
  4 34  1  0
  4 35  1  0
  6 36  1  0
  7 37  1  0
  9 38  1  0
  9 39  1  0
 13 40  1  0
 14 41  1  0
 16 42  1  0
 16 43  1  0
 17 44  1  0
 18 45  1  0
 23 46  1  0
 25 47  1  0
M  END
