7UEY_N0R_A_403
     RDKit          3D

 27 29  0  0  0  0  0  0  0  0999 V2000
  -24.2910   24.4130  -24.1950 C   0  0  0  0  0  0  0  0  0  0  0  0
  -24.5110   24.4780  -25.6900 C   0  0  0  0  0  0  0  0  0  0  0  0
  -25.8660   26.2410  -23.8810 C   0  0  0  0  0  0  0  0  0  0  0  0
  -26.0830   26.2790  -25.3750 C   0  0  0  0  0  0  0  0  0  0  0  0
  -27.4230   21.0970  -18.8410 C   0  0  0  0  0  0  0  0  0  0  0  0
  -26.1770   21.6700  -18.6170 C   0  0  0  0  0  0  0  0  0  0  0  0
  -25.5110   22.2500  -19.6800 C   0  0  0  0  0  0  0  0  0  0  0  0
  -26.0760   22.2590  -20.9380 C   0  0  0  0  0  0  0  0  0  0  0  0
  -25.3120   22.9110  -22.0720 C   0  0  0  0  0  0  0  0  0  0  0  0
  -25.9410   24.2650  -22.3910 C   0  0  0  0  0  0  0  0  0  0  0  0
  -24.4100   26.4890  -27.1980 C   0  0  0  0  0  0  0  0  0  0  0  0
  -23.7850   27.6590  -29.4220 C   0  0  0  0  0  0  0  0  0  0  0  0
  -23.3500   26.3460  -29.3080 C   0  0  0  0  0  0  0  0  0  0  0  0
  -23.6890   25.7110  -28.1030 C   0  0  0  0  0  0  0  0  0  0  0  0
  -27.6690   19.7340  -16.6780 C   0  0  0  0  0  0  0  0  0  0  0  0
  -28.7060   19.2070  -15.6870 C   0  0  0  0  0  0  0  0  0  0  0  0
  -27.3190   21.7020  -21.1590 C   0  0  0  0  0  0  0  0  0  0  0  0
  -27.9960   21.1230  -20.1000 C   0  0  0  0  0  0  0  0  0  0  0  0
  -25.3740   24.9800  -23.4880 N   0  0  0  0  0  0  0  0  0  0  0  0
  -24.7800   25.9040  -25.9640 N   0  0  0  0  0  0  0  0  0  0  0  0
  -24.7720   27.7180  -27.3740 N   0  0  0  0  0  0  0  0  0  0  0  0
  -24.4540   28.2980  -28.5190 N   0  0  0  0  0  0  0  0  0  0  0  0
  -28.1950   20.4980  -17.7770 N   0  0  0  0  0  0  0  0  0  0  0  0
  -26.5060   19.5390  -16.5650 O   0  0  0  0  0  0  0  0  0  0  0  0
  -29.9620   19.6490  -16.1390 O   0  0  0  0  0  0  0  0  0  0  0  0
  -26.8410   24.7310  -21.7920 O   0  0  0  0  0  0  0  0  0  0  0  0
  -23.4080   28.5320  -30.9000 Cl  0  0  0  0  0  0  0  0  0  0  0  0
  1  2  1  0
  3  4  1  0
  5  6  2  0
  6  7  1  0
  7  8  2  0
  8  9  1  0
  9 10  1  0
 12 13  2  0
 13 14  1  0
 11 14  2  0
 15 16  1  0
  8 17  1  0
 17 18  2  0
  5 18  1  0
  1 19  1  0
  3 19  1  0
 10 19  1  0
 11 20  1  0
  2 20  1  0
  4 20  1  0
 11 21  1  0
 12 22  1  0
 21 22  2  0
  5 23  1  0
 15 23  1  0
 15 24  2  0
 16 25  1  0
 10 26  2  0
 12 27  1  0
M  END
$$$$
