6YQW_82I_A_201
     RDKit          3D

 11 11  0  0  0  0  0  0  0  0999 V2000
    2.4716   14.1671    8.9808 C   0  0  0  0  0  0  0  0  0  0  0  0
    1.1544   13.7113    9.2985 N   0  0  0  0  0  0  0  0  0  0  0  0
    0.5213   13.8333   10.5534 C   0  0  0  0  0  0  0  0  0  0  0  0
    1.1544   14.4549   11.6107 C   0  0  0  0  0  0  0  0  0  0  0  0
    0.5053   14.5467   12.7936 N   0  0  0  0  0  0  0  0  0  0  0  0
   -0.7126   14.0709   12.9985 N   0  0  0  0  0  0  0  0  0  0  0  0
   -1.3883   14.1841   14.2848 C   0  0  0  0  0  0  0  0  0  0  0  0
   -1.3833   13.4542   12.0083 C   0  0  0  0  0  0  0  0  0  0  0  0
   -2.5377   12.9913   12.1654 O   0  0  0  0  0  0  0  0  0  0  0  0
   -0.7643   13.3347   10.7808 C   0  0  0  0  0  0  0  0  0  0  0  0
   -1.6121   12.5307    9.4535 Cl  0  0  0  0  0  0  0  0  0  0  0  0
  1  2  1  0
  2  3  1  0
  3  4  1  0
  4  5  2  0
  5  6  1  0
  6  7  1  0
  6  8  1  0
  8  9  2  0
  8 10  1  0
  3 10  2  0
 10 11  1  0
M  END
$$$$
