1Q4G_BFL_B_1701
     RDKit          3D

 17 18  0  0  0  0  0  0  0  0999 V2000
   47.2918   34.1542  183.7140 C   0  0  0  0  0  0  0  0  0  0  0  0
   46.8663   31.7872  188.3915 C   0  0  0  0  0  0  0  0  0  0  0  0
   47.9507   32.7042  188.4013 C   0  0  0  0  0  0  0  0  0  0  0  0
   48.1302   33.6205  187.3173 C   0  0  0  0  0  0  0  0  0  0  0  0
   47.7435   37.3062  181.6060 C   0  0  1  0  0  0  0  0  0  0  0  0
   46.3435   37.8664  181.3592 C   0  0  0  0  0  0  0  0  0  0  0  0
   48.8455   38.3670  181.7456 C   0  0  0  0  0  0  0  0  0  0  0  0
   47.4144   35.0223  182.6198 C   0  0  0  0  0  0  0  0  0  0  0  0
   47.6291   36.3925  182.8583 C   0  0  0  0  0  0  0  0  0  0  0  0
   47.7261   36.8801  184.2072 C   0  0  0  0  0  0  0  0  0  0  0  0
   47.6006   35.9928  185.3188 C   0  0  0  0  0  0  0  0  0  0  0  0
   47.3735   34.5765  185.0801 C   0  0  0  0  0  0  0  0  0  0  0  0
   47.2146   33.6094  186.2228 C   0  0  0  0  0  0  0  0  0  0  0  0
   46.1055   32.6624  186.2180 C   0  0  0  0  0  0  0  0  0  0  0  0
   45.9592   31.7624  187.3186 C   0  0  0  0  0  0  0  0  0  0  0  0
   45.8820   38.8060  181.9481 O   0  0  0  0  0  0  0  0  0  0  0  0
   45.6867   37.2296  180.4439 O   0  0  0  0  0  0  0  0  0  0  0  0
  2  3  2  0
  3  4  1  0
  5  6  1  0
  5  7  1  1
  1  8  2  0
  5  9  1  0
  8  9  1  0
  9 10  2  0
 10 11  1  0
  1 12  1  0
 11 12  2  0
  4 13  2  0
 12 13  1  0
 13 14  1  0
  2 15  1  0
 14 15  2  0
  6 16  1  0
  6 17  2  0
M  END
