7E4L_MDN_A_301
     RDKit          3D

  9  8  0  0  0  0  0  0  0  0999 V2000
   -3.3230    2.9270   -5.6040 O   0  0  0  0  0  0  0  0  0  0  0  0
   -4.4360    3.8430   -5.1490 P   0  0  0  0  0  0  0  0  0  0  0  0
   -5.8110    3.3650   -5.6350 O   0  0  0  0  0  0  0  0  0  0  0  0
   -4.4260    4.0690   -3.6560 O   0  0  0  0  0  0  0  0  0  0  0  0
   -4.2520    5.4370   -5.9930 C   0  0  0  0  0  0  0  0  0  0  0  0
   -2.8850    6.5470   -5.5270 P   0  0  0  0  0  0  0  0  0  0  0  0
   -1.8840    6.5270   -6.6330 O   0  0  0  0  0  0  0  0  0  0  0  0
   -3.5550    7.8880   -5.4110 O   0  0  0  0  0  0  0  0  0  0  0  0
   -2.2990    6.1150   -4.2280 O   0  0  0  0  0  0  0  0  0  0  0  0
  1  2  1  0
  2  3  2  0
  2  4  1  0
  2  5  1  0
  5  6  1  0
  6  7  2  0
  6  8  1  0
  6  9  1  0
M  END
$$$$
7E4L_MDN_B_301
     RDKit          3D

  9  8  0  0  0  0  0  0  0  0999 V2000
  -27.6740  -11.6820  -27.0160 O   0  0  0  0  0  0  0  0  0  0  0  0
  -28.6550  -12.6970  -27.5370 P   0  0  0  0  0  0  0  0  0  0  0  0
  -28.8440  -12.5510  -29.0270 O   0  0  0  0  0  0  0  0  0  0  0  0
  -28.2810  -14.1190  -27.1600 O   0  0  0  0  0  0  0  0  0  0  0  0
  -30.2020  -12.2600  -26.7170 C   0  0  0  0  0  0  0  0  0  0  0  0
  -31.7080  -13.1130  -27.2110 P   0  0  0  0  0  0  0  0  0  0  0  0
  -31.4920  -13.8200  -28.5040 O   0  0  0  0  0  0  0  0  0  0  0  0
  -32.7200  -12.0070  -27.3620 O   0  0  0  0  0  0  0  0  0  0  0  0
  -32.0700  -14.0610  -26.1050 O   0  0  0  0  0  0  0  0  0  0  0  0
  1  2  1  0
  2  3  2  0
  2  4  1  0
  2  5  1  0
  5  6  1  0
  6  7  2  0
  6  8  1  0
  6  9  1  0
M  END
$$$$
