6Z5Z_BDF_A_102
     RDKit          3D

 12 12  0  0  0  0  0  0  0  0999 V2000
    1.8960    4.1820  -22.7260 C   0  0  0  0  0  0  0  0  0  0  0  0
    3.1190    4.1810  -23.6300 C   0  0  1  0  0  0  0  0  0  0  0  0
    4.2630    3.3420  -23.0420 C   0  0  2  0  0  0  0  0  0  0  0  0
    5.5360    3.5210  -23.8680 C   0  0  1  0  0  0  0  0  0  0  0  0
    5.8820    4.9990  -23.9780 C   0  0  1  0  0  0  0  0  0  0  0  0
    4.6990    5.7370  -24.5560 C   0  0  0  0  0  0  0  0  0  0  0  0
    0.7820    4.7960  -23.3630 O   0  0  0  0  0  0  0  0  0  0  0  0
    2.8160    3.6810  -24.9040 O   0  0  0  0  0  0  0  0  0  0  0  0
    3.8990    1.9640  -23.0080 O   0  0  0  0  0  0  0  0  0  0  0  0
    6.6000    2.7680  -23.2970 O   0  0  0  0  0  0  0  0  0  0  0  0
    6.1650    5.5830  -22.6960 O   0  0  0  0  0  0  0  0  0  0  0  0
    3.5300    5.5410  -23.7350 O   0  0  0  0  0  0  0  0  0  0  0  0
  1  2  1  0
  2  3  1  0
  3  4  1  0
  4  5  1  0
  5  6  1  0
  1  7  1  0
  2  8  1  6
  3  9  1  6
  4 10  1  1
  5 11  1  1
  2 12  1  0
  6 12  1  0
M  END
$$$$
