7V3S_5I9_A_1401
     RDKit          3D

 38 43  0  0  0  0  0  0  0  0999 V2000
  -10.4081  -24.3509   30.8623 N   0  0  0  0  0  0  0  0  0  0  0  0
   -9.7893  -14.6408   28.5125 N   0  0  0  0  0  0  0  0  0  0  0  0
   -8.6885  -26.0142   30.8512 C   0  0  0  0  0  0  0  0  0  0  0  0
   -9.0189  -24.6850   30.8642 C   0  0  0  0  0  0  0  0  0  0  0  0
   -8.0282  -23.7036   30.8792 C   0  0  0  0  0  0  0  0  0  0  0  0
  -10.7212  -22.9610   30.8764 C   0  0  0  0  0  0  0  0  0  0  0  0
   -9.7016  -22.0235   30.8911 C   0  0  0  0  0  0  0  0  0  0  0  0
  -11.4440  -20.3712   30.9016 C   0  0  0  0  0  0  0  0  0  0  0  0
   -9.2764  -18.2793   28.8967 C   0  0  0  0  0  0  0  0  0  0  0  0
   -9.6333  -15.9487   29.0932 C   0  0  0  0  0  0  0  0  0  0  0  0
   -9.5564  -17.3105   31.0179 C   0  0  0  0  0  0  0  0  0  0  0  0
  -10.4833  -11.7601   27.7073 C   0  0  0  0  0  0  0  0  0  0  0  0
   -9.4823  -11.0072   29.8898 C   0  0  0  0  0  0  0  0  0  0  0  0
  -11.5223  -11.8867   28.7508 C   0  0  0  0  0  0  0  0  0  0  0  0
   -9.9067   -8.3661   32.0896 C   0  0  0  0  0  0  0  0  0  0  0  0
   -7.8154   -7.3359   32.7195 C   0  0  0  0  0  0  0  0  0  0  0  0
   -7.9017   -8.6265   30.7443 C   0  0  0  0  0  0  0  0  0  0  0  0
   -6.7082  -24.1483   30.8800 C   0  0  0  0  0  0  0  0  0  0  0  0
  -10.0832  -20.7006   30.9042 C   0  0  0  0  0  0  0  0  0  0  0  0
   -9.3395  -18.4476   30.2597 C   0  0  0  0  0  0  0  0  0  0  0  0
   -9.4174  -17.0530   28.2709 C   0  0  0  0  0  0  0  0  0  0  0  0
   -9.7026  -16.0745   30.4549 C   0  0  0  0  0  0  0  0  0  0  0  0
   -9.7598  -13.5454   29.3619 C   0  0  0  0  0  0  0  0  0  0  0  0
  -10.0259  -12.1219   29.0984 C   0  0  1  0  0  0  0  0  0  0  0  0
   -6.3911  -25.4833   30.8669 C   0  0  0  0  0  0  0  0  0  0  0  0
   -9.2350   -8.8669   30.9932 C   0  0  0  0  0  0  0  0  0  0  0  0
   -9.1660   -7.5802   32.9703 C   0  0  0  0  0  0  0  0  0  0  0  0
   -7.1699   -7.8514   31.6122 C   0  0  0  0  0  0  0  0  0  0  0  0
   -7.3895  -26.4438   30.8521 C   0  0  0  0  0  0  0  0  0  0  0  0
  -12.4229  -21.3515   30.8864 C   0  0  0  0  0  0  0  0  0  0  0  0
   -9.6287  -17.4152   32.3770 F   0  0  0  0  0  0  0  0  0  0  0  0
   -7.0641   -6.5697   33.5638 F   0  0  0  0  0  0  0  0  0  0  0  0
  -12.0197  -22.6311   30.8742 N   0  0  0  0  0  0  0  0  0  0  0  0
   -9.9057   -9.6987   30.0143 N   0  0  0  0  0  0  0  0  0  0  0  0
   -8.3603  -22.3574   30.8927 O   0  0  0  0  0  0  0  0  0  0  0  0
   -9.2062  -19.6368   30.9201 O   0  0  0  0  0  0  0  0  0  0  0  0
   -9.4401  -13.8175   30.5922 O   0  0  0  0  0  0  0  0  0  0  0  0
   -8.4272  -11.3046   30.5966 O   0  0  0  0  0  0  0  0  0  0  0  0
  3  4  1  0
  1  4  1  0
  4  5  2  0
  1  6  1  0
  6  7  2  0
  2 10  1  0
 14 12  1  1
  5 18  1  0
  8 19  2  0
  7 19  1  0
  9 20  2  0
 11 20  1  0
  9 21  1  0
 10 21  2  0
 10 22  1  0
 11 22  2  0
  2 23  1  0
 24 13  1  1
 12 24  1  6
 14 24  1  0
 23 24  1  0
 18 25  2  0
 17 26  1  0
 15 26  2  0
 16 27  2  0
 15 27  1  0
 16 28  1  0
 17 28  2  0
 25 29  1  0
  3 29  2  0
  8 30  1  0
 11 31  1  0
 16 32  1  0
  6 33  1  0
 30 33  2  0
 26 34  1  0
 13 34  1  0
  5 35  1  0
  7 35  1  0
 20 36  1  0
 19 36  1  0
 23 37  2  0
 13 38  2  0
M  END
$$$$
