7L7C_XQ1_A_201
     RDKit          3D

 35 37  0  0  0  0  0  0  0  0999 V2000
   21.2310   -5.0110   18.4233 C   0  0  0  0  0  0  0  0  0  0  0  0
   21.7868   -5.6723   19.5202 C   0  0  0  0  0  0  0  0  0  0  0  0
   19.0336   -5.6214   15.4585 C   0  0  0  0  0  0  0  0  0  0  0  0
   20.7071   -5.7417   17.3422 C   0  0  0  0  0  0  0  0  0  0  0  0
   18.4652   -4.9654   14.3523 C   0  0  0  0  0  0  0  0  0  0  0  0
   21.3152   -7.8165   18.4880 C   0  0  0  0  0  0  0  0  0  0  0  0
   21.8281   -7.0671   19.5519 C   0  0  0  0  0  0  0  0  0  0  0  0
   20.1143   -5.0390   16.1759 C   0  0  0  0  0  0  0  0  0  0  0  0
   20.8209  -10.1046   17.6073 C   0  0  1  0  0  0  0  0  0  0  0  0
   21.3832   -9.2157   18.5671 O   0  0  0  0  0  0  0  0  0  0  0  0
   18.6691   -2.8570   12.9719 C   0  0  0  0  0  0  0  0  0  0  0  0
   17.6416   -3.0388   11.8979 C   0  0  1  0  0  0  0  0  0  0  0  0
   18.2727   -3.6336   10.6812 C   0  0  0  0  0  0  0  0  0  0  0  0
   19.5681   -1.8030   13.0968 C   0  0  0  0  0  0  0  0  0  0  0  0
   20.0368   -3.1611   14.6663 C   0  0  0  0  0  0  0  0  0  0  0  0
   20.6215   -3.7820   15.7665 C   0  0  0  0  0  0  0  0  0  0  0  0
   20.7541   -7.1481   17.3818 C   0  0  0  0  0  0  0  0  0  0  0  0
   18.9941   -3.7300   13.9877 C   0  0  0  0  0  0  0  0  0  0  0  0
   18.8653   -2.8936    9.8512 O   0  0  0  0  0  0  0  0  0  0  0  0
   18.2440   -5.0113   10.4889 O   0  0  0  0  0  0  0  0  0  0  0  0
   20.3697   -2.0128   14.1258 O   0  0  0  0  0  0  0  0  0  0  0  0
   21.1945   -3.9288   18.4285 H   0  0  0  0  0  0  0  0  0  0  0  0
   22.1836   -5.1019   20.3501 H   0  0  0  0  0  0  0  0  0  0  0  0
   18.6204   -6.5739   15.7653 H   0  0  0  0  0  0  0  0  0  0  0  0
   17.6411   -5.4079   13.8081 H   0  0  0  0  0  0  0  0  0  0  0  0
   22.2611   -7.5695   20.4077 H   0  0  0  0  0  0  0  0  0  0  0  0
   20.7131   -9.5913   16.6285 H   0  0  0  0  0  0  0  0  0  0  0  0
   21.4969  -10.9746   17.4793 H   0  0  0  0  0  0  0  0  0  0  0  0
   19.8330  -10.4707   17.9585 H   0  0  0  0  0  0  0  0  0  0  0  0
   16.8311   -3.7053   12.2619 H   0  0  0  0  0  0  0  0  0  0  0  0
   17.1853   -2.0575   11.6444 H   0  0  0  0  0  0  0  0  0  0  0  0
   19.6203   -0.9349   12.4529 H   0  0  0  0  0  0  0  0  0  0  0  0
   21.4554   -3.3132   16.2730 H   0  0  0  0  0  0  0  0  0  0  0  0
   20.3712   -7.7151   16.5442 H   0  0  0  0  0  0  0  0  0  0  0  0
   17.5462   -5.4380    9.8914 H   0  0  0  0  0  0  0  0  0  0  0  0
  1  2  2  0
  1  4  1  0
  3  5  2  0
  6  7  2  0
  2  7  1  0
  3  8  1  0
  4  8  1  0
  9 10  1  0
  6 10  1  0
 11 12  1  0
 12 13  1  0
 11 14  2  0
 15 16  1  0
  8 16  2  0
  4 17  2  0
  6 17  1  0
 11 18  1  0
  5 18  1  0
 15 18  2  0
 13 19  2  0
 13 20  1  0
 14 21  1  0
 15 21  1  0
  1 22  1  0
  2 23  1  0
  3 24  1  0
  5 25  1  0
  7 26  1  0
  9 27  1  6
  9 28  1  0
  9 29  1  0
 12 30  1  1
 12 31  1  0
 14 32  1  0
 16 33  1  0
 17 34  1  0
 20 35  1  0
M  END
