7NU0_DCL_A_1004
     RDKit          3D

  8  7  0  0  0  0  0  0  0  0999 V2000
   22.7125  -12.5508  -27.2172 N   0  0  0  0  0  0  0  0  0  0  0  0
   21.7245  -11.8520  -26.3836 C   0  0  2  0  0  0  0  0  0  0  0  0
   20.4747  -11.6509  -27.2294 C   0  0  0  0  0  0  0  0  0  0  0  0
   22.2681  -10.5222  -25.8741 C   0  0  0  0  0  0  0  0  0  0  0  0
   23.2831  -10.6150  -24.7417 C   0  0  1  0  0  0  0  0  0  0  0  0
   23.9782   -9.2708  -24.5931 C   0  0  0  0  0  0  0  0  0  0  0  0
   22.5906  -11.0117  -23.4281 C   0  0  0  0  0  0  0  0  0  0  0  0
   20.7875  -11.7400  -28.6098 O   0  0  0  0  0  0  0  0  0  0  0  0
  2  1  1  6
  2  3  1  0
  2  4  1  0
  4  5  1  0
  5  6  1  1
  5  7  1  0
  3  8  1  0
M  END
