5SB2_1K2_A_1006
     RDKit          3D

 30 34  0  0  0  0  0  0  0  0999 V2000
  -25.8692   11.9327   -5.9133 C   0  0  0  0  0  0  0  0  0  0  0  0
  -26.9182    7.5379   -3.0784 C   0  0  0  0  0  0  0  0  0  0  0  0
  -27.5324    7.2028   -4.0958 O   0  0  0  0  0  0  0  0  0  0  0  0
  -26.8006    6.6188   -1.9018 C   0  0  0  0  0  0  0  0  0  0  0  0
  -27.6538    5.4502   -0.0330 C   0  0  0  0  0  0  0  0  0  0  0  0
  -26.5169    4.6731    0.0460 C   0  0  0  0  0  0  0  0  0  0  0  0
  -25.4996    4.8889   -0.8643 C   0  0  0  0  0  0  0  0  0  0  0  0
  -24.2422    4.0744   -0.7657 C   0  0  0  0  0  0  0  0  0  0  0  0
  -23.7149    1.9827    0.2640 C   0  0  0  0  0  0  0  0  0  0  0  0
  -22.4576    2.2496    0.8038 C   0  0  0  0  0  0  0  0  0  0  0  0
  -21.6050    1.1524    0.9296 C   0  0  0  0  0  0  0  0  0  0  0  0
  -22.0871   -0.1291    0.4993 C   0  0  0  0  0  0  0  0  0  0  0  0
  -19.9942   -0.4124    1.3180 C   0  0  0  0  0  0  0  0  0  0  0  0
  -20.2759    0.9413    1.4379 C   0  0  0  0  0  0  0  0  0  0  0  0
  -24.0841    0.6721   -0.1466 C   0  0  0  0  0  0  0  0  0  0  0  0
  -26.3372    8.7794   -3.0100 N   0  0  0  0  0  0  0  0  0  0  0  0
  -26.5775    9.6988   -4.0861 C   0  0  1  0  0  0  0  0  0  0  0  0
  -25.5857    9.5887   -5.2589 C   0  0  1  0  0  0  0  0  0  0  0  0
  -27.0466    9.2100   -5.4571 C   0  0  0  0  0  0  0  0  0  0  0  0
  -25.0457   10.8261   -5.8357 C   0  0  0  0  0  0  0  0  0  0  0  0
  -23.7448   10.8892   -6.3156 C   0  0  0  0  0  0  0  0  0  0  0  0
  -23.2848   12.0678   -6.8845 C   0  0  0  0  0  0  0  0  0  0  0  0
  -24.1140   13.1886   -6.9630 C   0  0  0  0  0  0  0  0  0  0  0  0
  -25.4097   13.1155   -6.4706 C   0  0  0  0  0  0  0  0  0  0  0  0
  -27.8330    6.4397   -0.9731 C   0  0  0  0  0  0  0  0  0  0  0  0
  -24.5921    3.0331    0.1340 O   0  0  0  0  0  0  0  0  0  0  0  0
  -21.0956   -1.0731    0.7420 N   0  0  0  0  0  0  0  0  0  0  0  0
  -23.3125   -0.3863   -0.0436 N   0  0  0  0  0  0  0  0  0  0  0  0
  -25.6458    5.8563   -1.8347 C   0  0  0  0  0  0  0  0  0  0  0  0
  -28.9134    5.1236    1.1053 Cl  0  0  0  0  0  0  0  0  0  0  0  0
  2  3  2  0
  2  4  1  0
  5  6  2  0
  6  7  1  0
  7  8  1  0
  9 10  2  0
 10 11  1  0
 11 12  2  0
 11 14  1  0
 13 14  2  0
  9 15  1  0
  2 16  1  0
 17 16  1  1
 17 18  1  0
 17 19  1  0
 18 19  1  0
 18 20  1  6
  1 20  2  0
 20 21  1  0
 21 22  2  0
 22 23  1  0
 23 24  2  0
  1 24  1  0
  4 25  2  0
  5 25  1  0
  8 26  1  0
  9 26  1  0
 12 27  1  0
 13 27  1  0
 12 28  1  0
 15 28  2  0
  4 29  1  0
  7 29  2  0
  5 30  1  0
M  END
