7T0U_E3I_A_204
     RDKit          3D

 48 53  0  0  0  0  0  0  0  0999 V2000
  -15.2327   -1.7839   14.1908 C   0  0  0  0  0  0  0  0  0  0  0  0
  -15.2219    0.3701   15.2900 C   0  0  0  0  0  0  0  0  0  0  0  0
  -15.8435    1.5363   15.6107 C   0  0  0  0  0  0  0  0  0  0  0  0
  -15.4276    2.6064   16.3628 C   0  0  0  0  0  0  0  0  0  0  0  0
  -14.1785    2.8618   17.0553 C   0  0  0  0  0  0  0  0  0  0  0  0
  -12.9402    2.4623   16.6301 C   0  0  0  0  0  0  0  0  0  0  0  0
  -11.7990    2.7456   17.3811 C   0  0  0  0  0  0  0  0  0  0  0  0
  -11.8747    3.4398   18.5824 C   0  0  0  0  0  0  0  0  0  0  0  0
  -13.1200    3.8436   19.0123 C   0  0  0  0  0  0  0  0  0  0  0  0
  -13.3274    4.5828   20.2646 C   0  0  0  0  0  0  0  0  0  0  0  0
  -14.2549    3.5521   18.2488 C   0  0  0  0  0  0  0  0  0  0  0  0
  -16.4765    3.5344   16.3796 C   0  0  0  0  0  0  0  0  0  0  0  0
  -18.7883    3.7166   15.4306 C   0  0  0  0  0  0  0  0  0  0  0  0
  -19.5976    3.8175   16.6788 C   0  0  0  0  0  0  0  0  0  0  0  0
  -21.7218    4.6850   17.6376 C   0  0  0  0  0  0  0  0  0  0  0  0
  -21.4330    4.2694   18.9240 C   0  0  0  0  0  0  0  0  0  0  0  0
  -22.3068    4.5718   19.9411 C   0  0  0  0  0  0  0  0  0  0  0  0
  -20.8039    3.7786   21.7133 C   0  0  1  0  0  0  0  0  0  0  0  0
  -19.8566    4.9410   21.4011 C   0  0  0  0  0  0  0  0  0  0  0  0
  -20.7016    3.3524   23.1435 C   0  0  0  0  0  0  0  0  0  0  0  0
  -21.5465    4.5272   25.1232 C   0  0  2  0  0  0  0  0  0  0  0  0
  -21.7037    5.9951   25.1084 C   0  0  0  0  0  0  0  0  0  0  0  0
  -20.1909    4.9237   25.5941 C   0  0  0  0  0  0  0  0  0  0  0  0
  -23.0728    3.6466   23.5006 C   0  0  0  0  0  0  0  0  0  0  0  0
  -23.2513    4.3199   22.1835 C   0  0  0  0  0  0  0  0  0  0  0  0
  -23.7337    5.6865   18.4181 C   0  0  0  0  0  0  0  0  0  0  0  0
  -22.8946    5.4088   17.3757 C   0  0  0  0  0  0  0  0  0  0  0  0
  -17.1414    1.8236   15.1767 C   0  0  0  0  0  0  0  0  0  0  0  0
  -17.1548   -0.2703   14.0944 C   0  0  0  0  0  0  0  0  0  0  0  0
  -17.8545   -1.2806   13.2604 C   0  0  1  0  0  0  0  0  0  0  0  0
  -17.3154   -1.2556   11.9831 F   0  0  0  0  0  0  0  0  0  0  0  0
  -17.6041   -2.5711   13.7514 F   0  0  0  0  0  0  0  0  0  0  0  0
  -19.2113   -1.0517   13.1454 F   0  0  0  0  0  0  0  0  0  0  0  0
  -15.9097   -0.5236   14.5232 N   0  0  0  0  0  0  0  0  0  0  0  0
  -14.6007    5.0676   20.6492 N   0  0  0  0  0  0  0  0  0  0  0  0
  -17.5019    3.0520   15.6624 N   0  0  0  0  0  0  0  0  0  0  0  0
  -20.9017    4.4219   16.5143 N   0  0  0  0  0  0  0  0  0  0  0  0
  -22.1066    4.2240   21.2990 N   0  0  0  0  0  0  0  0  0  0  0  0
  -21.7334    3.7174   24.0125 N   0  0  0  0  0  0  0  0  0  0  0  0
  -23.4423    5.2755   19.6654 N   0  0  0  0  0  0  0  0  0  0  0  0
  -17.7737    0.9062   14.4217 N   0  0  0  0  0  0  0  0  0  0  0  0
  -14.0632    0.1013   15.6709 O   0  0  0  0  0  0  0  0  0  0  0  0
  -10.7931    3.7487   19.3660 O   0  0  0  0  0  0  0  0  0  0  0  0
  -12.3684    4.8150   21.0531 O   0  0  0  0  0  0  0  0  0  0  0  0
  -20.8137    6.0540   26.1813 O   0  0  0  0  0  0  0  0  0  0  0  0
  -19.1765    3.4095   17.7806 O   0  0  0  0  0  0  0  0  0  0  0  0
  -10.2056    2.2250   16.8199 Cl  0  0  0  0  0  0  0  0  0  0  0  0
  -23.3176    5.9690   15.7868 Cl  0  0  0  0  0  0  0  0  0  0  0  0
  2  3  1  0
  3  4  1  0
  4  5  1  0
  5  6  2  0
  6  7  1  0
  7  8  2  0
  8  9  1  0
  9 10  1  0
  9 11  2  0
  5 11  1  0
  4 12  2  0
 13 14  1  0
 15 16  2  0
 16 17  1  0
 19 18  1  6
 18 20  1  0
 21 22  1  0
 21 23  1  0
 24 25  1  0
 15 27  1  0
 26 27  2  0
  3 28  2  0
 29 30  1  0
 30 31  1  6
 30 32  1  0
 30 33  1  0
  2 34  1  0
  1 34  1  1
 29 34  1  0
 10 35  1  0
 12 36  1  0
 13 36  1  1
 28 36  1  0
 14 37  1  0
 15 37  1  0
 17 38  1  0
 18 38  1  1
 25 38  1  6
 20 39  1  1
 24 39  1  6
 21 39  1  6
 26 40  1  0
 17 40  2  0
 28 41  1  0
 29 41  2  0
  2 42  2  0
  8 43  1  0
 10 44  2  0
 22 45  1  6
 23 45  1  6
 14 46  2  0
  7 47  1  0
 27 48  1  0
M  END
$$$$
