8D5D_5DK_A_505
     RDKit          3D

 49 49  0  0  0  0  0  0  0  0999 V2000
   -3.2535    0.0334    2.2546 C   0  0  0  0  0  0  0  0  0  0  0  0
   -2.0178   -0.4706    1.8186 C   0  0  0  0  0  0  0  0  0  0  0  0
   -1.2985    0.2228    0.8139 C   0  0  0  0  0  0  0  0  0  0  0  0
   -1.8481    1.4207    0.2789 C   0  0  0  0  0  0  0  0  0  0  0  0
   -3.0971    1.8573    0.7443 C   0  0  0  0  0  0  0  0  0  0  0  0
    1.6171   -2.2981   -1.6113 C   0  0  0  0  0  0  0  0  0  0  0  0
   -1.5479   -1.6610    2.3848 O   0  0  0  0  0  0  0  0  0  0  0  0
   -0.6358    5.2481    0.0181 O   0  0  0  0  0  0  0  0  0  0  0  0
   -0.6956    3.5066    2.1668 O   0  0  0  0  0  0  0  0  0  0  0  0
    1.5471    4.3191    1.1058 O   0  0  0  0  0  0  0  0  0  0  0  0
    0.1814    2.6015   -0.3244 O   0  0  0  0  0  0  0  0  0  0  0  0
    0.3685   -0.2702   -0.8745 N   0  0  0  0  0  0  0  0  0  0  0  0
    0.1308    3.9279    0.7504 P   0  0  0  0  0  5  0  0  0  0  0  0
   -4.0425   -0.6776    3.3115 C   0  0  0  0  0  0  0  0  0  0  0  0
    0.0218   -0.2899    0.3779 C   0  0  0  0  0  0  0  0  0  0  0  0
   -1.1274    2.2777   -0.7438 C   0  0  0  0  0  0  0  0  0  0  0  0
   -3.7563    1.1675    1.7059 N   0  0  0  0  0  0  0  0  0  0  0  0
    1.6422   -0.7645   -1.4116 C   0  0  1  0  0  0  0  0  0  0  0  0
    2.8283   -0.2678   -0.6154 C   0  0  0  0  0  0  0  0  0  0  0  0
    2.7737    0.9764    0.0069 O   0  0  0  0  0  0  0  0  0  0  0  0
    1.4462   -3.1068   -0.3128 C   0  0  0  0  0  0  0  0  0  0  0  0
    1.6885   -4.6040   -0.5323 C   0  0  0  0  0  0  0  0  0  0  0  0
    0.6567   -5.1770   -1.3985 N   0  0  0  0  0  0  0  0  0  0  0  0
    0.8584   -5.4640   -2.7909 C   0  0  0  0  0  0  0  0  0  0  0  0
   -0.2339   -5.9465   -3.5770 N   0  0  0  0  0  0  0  0  0  0  0  0
    2.0203   -5.2865   -3.3371 N   0  0  0  0  0  0  0  0  0  0  0  0
    3.8988   -0.9331   -0.5773 O   0  0  0  0  0  0  0  0  0  0  0  0
   -3.5442    2.7633    0.3557 H   0  0  0  0  0  0  0  0  0  0  0  0
    2.5588   -2.6043   -2.1181 H   0  0  0  0  0  0  0  0  0  0  0  0
    0.7814   -2.5469   -2.3013 H   0  0  0  0  0  0  0  0  0  0  0  0
   -0.7025   -2.1297    2.0906 H   0  0  0  0  0  0  0  0  0  0  0  0
   -0.7141    5.9252    0.7366 H   0  0  0  0  0  0  0  0  0  0  0  0
   -0.2170    2.7108    2.5115 H   0  0  0  0  0  0  0  0  0  0  0  0
   -3.4370   -0.7672    4.2380 H   0  0  0  0  0  0  0  0  0  0  0  0
   -4.3211   -1.6912    2.9541 H   0  0  0  0  0  0  0  0  0  0  0  0
   -4.9717   -0.1173    3.5496 H   0  0  0  0  0  0  0  0  0  0  0  0
    0.6972   -0.7021    1.1166 H   0  0  0  0  0  0  0  0  0  0  0  0
   -1.0572    1.7007   -1.6885 H   0  0  0  0  0  0  0  0  0  0  0  0
   -1.7131    3.1833   -1.0224 H   0  0  0  0  0  0  0  0  0  0  0  0
    1.7519   -0.3245   -2.4258 H   0  0  0  0  0  0  0  0  0  0  0  0
    3.5685    1.3370    0.5208 H   0  0  0  0  0  0  0  0  0  0  0  0
    2.1639   -2.7489    0.4555 H   0  0  0  0  0  0  0  0  0  0  0  0
    0.4173   -2.9712    0.0806 H   0  0  0  0  0  0  0  0  0  0  0  0
    1.6484   -5.1181    0.4520 H   0  0  0  0  0  0  0  0  0  0  0  0
    2.7059   -4.7750   -0.9453 H   0  0  0  0  0  0  0  0  0  0  0  0
   -0.3024   -5.2935   -1.0006 H   0  0  0  0  0  0  0  0  0  0  0  0
   -0.1118   -6.1599   -4.5919 H   0  0  0  0  0  0  0  0  0  0  0  0
   -1.1729   -6.0913   -3.1443 H   0  0  0  0  0  0  0  0  0  0  0  0
    2.1892   -5.4872   -4.3479 H   0  0  0  0  0  0  0  0  0  0  0  0
  1  2  2  0
  2  3  1  0
  3  4  2  0
  4  5  1  0
  2  7  1  0
 10 13  2  0
  8 13  1  0
 11 13  1  0
  9 13  1  0
  1 14  1  0
 12 15  2  0
  3 15  1  0
 11 16  1  0
  4 16  1  0
  1 17  1  0
  5 17  2  0
 18  6  1  0
 12 18  1  0
 18 19  1  0
 19 20  1  0
  6 21  1  0
 21 22  1  0
 22 23  1  0
 23 24  1  0
 24 25  1  0
 24 26  2  0
 19 27  2  0
  5 28  1  0
  6 29  1  0
  6 30  1  0
  7 31  1  0
  8 32  1  0
  9 33  1  0
 14 34  1  0
 14 35  1  0
 14 36  1  0
 15 37  1  0
 16 38  1  0
 16 39  1  0
 18 40  1  6
 20 41  1  0
 21 42  1  0
 21 43  1  0
 22 44  1  0
 22 45  1  0
 23 46  1  0
 25 47  1  0
 25 48  1  0
 26 49  1  0
M  END
