7SFO_98L_A_601
     RDKit          3D

 25 28  0  0  0  0  0  0  0  0999 V2000
   -5.5110   -7.7452   17.1329 N   0  0  0  0  0  0  0  0  0  0  0  0
   -4.6162   -5.2464   20.2813 N   0  0  0  0  0  0  0  0  0  0  0  0
   -6.0620   -2.1471   18.5497 C   0  0  0  0  0  0  0  0  0  0  0  0
   -6.6616   -3.2895   19.0286 C   0  0  0  0  0  0  0  0  0  0  0  0
   -7.1671   -3.3697   20.3376 C   0  0  0  0  0  0  0  0  0  0  0  0
   -6.7267   -4.5267   18.1631 C   0  0  0  0  0  0  0  0  0  0  0  0
   -6.1689   -6.5807   17.2428 C   0  0  0  0  0  0  0  0  0  0  0  0
   -4.5407   -8.0753   18.0426 C   0  0  0  0  0  0  0  0  0  0  0  0
   -3.4595   -5.4862   21.1160 C   0  0  0  0  0  0  0  0  0  0  0  0
   -3.8669   -4.8671   23.4570 C   0  0  0  0  0  0  0  0  0  0  0  0
   -3.4461   -2.6958   24.3808 C   0  0  0  0  0  0  0  0  0  0  0  0
   -7.0786   -2.3066   21.1840 C   0  0  0  0  0  0  0  0  0  0  0  0
   -4.9643   -5.9992   19.1431 C   0  0  0  0  0  0  0  0  0  0  0  0
   -7.6551   -4.4500   17.1233 C   0  0  0  0  0  0  0  0  0  0  0  0
   -3.4084   -4.4923   22.1912 C   0  0  0  0  0  0  0  0  0  0  0  0
   -3.8858   -3.9993   24.5173 C   0  0  0  0  0  0  0  0  0  0  0  0
   -2.9909   -2.3090   23.1387 C   0  0  0  0  0  0  0  0  0  0  0  0
   -2.9756   -3.1959   22.0686 C   0  0  0  0  0  0  0  0  0  0  0  0
   -6.4758   -1.1403   20.7210 C   0  0  0  0  0  0  0  0  0  0  0  0
   -5.9817   -1.0761   19.4267 C   0  0  0  0  0  0  0  0  0  0  0  0
   -5.9683   -5.6277   18.2191 C   0  0  0  0  0  0  0  0  0  0  0  0
   -4.3333   -7.1754   18.9896 N   0  0  0  0  0  0  0  0  0  0  0  0
   -4.3462   -4.3775   25.7861 O   0  0  0  0  0  0  0  0  0  0  0  0
   -7.4793   -5.9231   16.1970 S   0  0  0  0  0  0  0  0  0  0  0  0
   -3.6803   -9.5870   17.9040 Cl  0  0  0  0  0  0  0  0  0  0  0  0
  3  4  2  0
  4  5  1  0
  4  6  1  0
  1  7  2  0
  1  8  1  0
  9  2  1  1
  5 12  2  0
  2 13  1  0
  6 14  2  0
 10 15  2  0
  9 15  1  0
 11 16  2  0
 10 16  1  0
 11 17  1  0
 17 18  2  0
 15 18  1  0
 12 19  1  0
 19 20  2  0
  3 20  1  0
  6 21  1  0
 13 21  2  0
  7 21  1  0
 13 22  1  0
  8 22  2  0
 16 23  1  0
 14 24  1  0
  7 24  1  0
  8 25  1  0
M  END
$$$$
