7MSR_DCA_A_401
     RDKit          3D

 47 49  0  0  0  0  0  0  0  0999 V2000
   -0.7577   -5.4110    3.2789 N   0  0  0  0  0  0  0  0  0  0  0  0
   -0.8345   -5.5889    4.6267 C   0  0  0  0  0  0  0  0  0  0  0  0
   -1.8023   -6.3602    5.1627 N   0  0  0  0  0  0  0  0  0  0  0  0
   -2.7115   -6.9683    4.3603 C   0  0  0  0  0  0  0  0  0  0  0  0
   -2.6490   -6.7981    2.9787 C   0  0  0  0  0  0  0  0  0  0  0  0
   -1.6489   -6.0034    2.4519 C   0  0  0  0  0  0  0  0  0  0  0  0
   -1.5326   -5.7908    1.0460 N   0  0  0  0  0  0  0  0  0  0  0  0
   -3.6514   -7.4965    2.4086 N   0  0  0  0  0  0  0  0  0  0  0  0
   -4.3461   -8.1039    3.3955 C   0  0  0  0  0  0  0  0  0  0  0  0
   -3.7687   -7.7761    4.5570 N   0  0  0  0  0  0  0  0  0  0  0  0
   -4.2119   -8.2216    5.8399 C   0  0  1  0  0  0  0  0  0  0  0  0
   -5.1091   -7.2339    6.5415 C   0  0  2  0  0  0  0  0  0  0  0  0
   -4.4251   -6.2204    7.1653 O   0  0  0  0  0  0  0  0  0  0  0  0
   -5.9794   -8.0796    7.3810 C   0  0  2  0  0  0  0  0  0  0  0  0
   -5.6930   -8.2608    8.6704 O   0  0  0  0  0  0  0  0  0  0  0  0
   -5.8718   -7.0622    9.7788 P   0  0  1  0  0  0  0  0  0  0  0  0
   -4.6331   -7.0621   10.6555 O   0  0  0  0  0  0  0  0  0  0  0  0
   -5.9212   -5.5048    9.0938 O   0  0  0  0  0  0  0  0  0  0  0  0
   -7.1698   -7.3025   10.8643 O   0  0  0  0  0  0  0  0  0  0  0  0
   -5.9318   -9.4171    6.6715 C   0  0  2  0  0  0  0  0  0  0  0  0
   -4.8348   -9.4392    5.8567 O   0  0  0  0  0  0  0  0  0  0  0  0
   -7.2301   -9.7400    5.9703 C   0  0  0  0  0  0  0  0  0  0  0  0
   -8.0751   -8.6501    6.1550 O   0  0  0  0  0  0  0  0  0  0  0  0
   -9.0262   -8.3491    4.7917 P   0  0  2  0  0  0  0  0  0  0  0  0
  -10.2238   -7.5503    5.2627 O   0  0  0  0  0  0  0  0  0  0  0  0
   -9.5239   -9.7936    4.0908 O   0  0  0  0  0  0  0  0  0  0  0  0
   -8.2122   -7.4194    3.6375 O   0  0  0  0  0  0  0  0  0  0  0  0
   -8.8826   -5.8866    3.5462 P   0  0  2  0  0  0  0  0  0  0  0  0
   -9.7673   -5.6337    4.7589 O   0  0  0  0  0  0  0  0  0  0  0  0
   -9.8981   -5.8288    2.1938 O   0  0  0  0  0  0  0  0  0  0  0  0
   -7.7438   -4.6621    3.4330 O   0  0  0  0  0  0  0  0  0  0  0  0
   -5.9105   -3.8676    4.6909 C   0  0  2  0  0  0  0  0  0  0  0  0
   -6.4783   -5.0109    3.8367 C   0  0  0  0  0  0  0  0  0  0  0  0
   -6.4387   -2.5422    4.2114 C   0  0  0  0  0  0  0  0  0  0  0  0
   -4.4048   -3.8540    4.5955 C   0  0  0  0  0  0  0  0  0  0  0  0
   -6.2708   -4.1071    6.1498 C   0  0  1  0  0  0  0  0  0  0  0  0
   -5.6387   -5.3275    6.4870 O   0  0  0  0  0  0  0  0  0  0  0  0
   -5.7257   -3.0680    7.0493 C   0  0  0  0  0  0  0  0  0  0  0  0
   -4.4727   -2.8988    7.0307 O   0  0  0  0  0  0  0  0  0  0  0  0
   -6.4754   -2.2589    7.9184 N   0  0  0  0  0  0  0  0  0  0  0  0
   -5.8039   -1.4724    8.9174 C   0  0  0  0  0  0  0  0  0  0  0  0
   -4.3049   -1.6348    8.8217 C   0  0  0  0  0  0  0  0  0  0  0  0
   -3.6694   -0.8316    9.8846 C   0  0  0  0  0  0  0  0  0  0  0  0
   -4.3737   -0.1533   10.6752 O   0  0  0  0  0  0  0  0  0  0  0  0
   -2.2589   -0.8512    9.9817 N   0  0  0  0  0  0  0  0  0  0  0  0
   -1.5672   -0.0468   10.9723 C   0  0  0  0  0  0  0  0  0  0  0  0
   -1.4102    1.3552   10.4521 C   0  0  0  0  0  0  0  0  0  0  0  0
  1  2  2  0
  2  3  1  0
  3  4  2  0
  4  5  1  0
  1  6  1  0
  5  6  2  0
  6  7  1  0
  5  8  1  0
  8  9  2  0
  4 10  1  0
  9 10  1  0
 11 10  1  6
 11 12  1  0
 12 13  1  1
 12 14  1  0
 14 15  1  1
 15 16  1  0
 16 17  2  0
 16 18  1  6
 16 19  1  0
 14 20  1  0
 11 21  1  0
 20 21  1  0
 20 22  1  6
 22 23  1  0
 23 24  1  0
 24 25  2  0
 24 26  1  6
 24 27  1  0
 27 28  1  0
 28 29  2  0
 28 30  1  6
 28 31  1  0
 31 33  1  0
 32 33  1  0
 32 34  1  6
 32 35  1  0
 32 36  1  0
 36 37  1  1
 36 38  1  0
 38 39  2  0
 38 40  1  0
 40 41  1  0
 41 42  1  0
 42 43  1  0
 43 44  2  0
 43 45  1  0
 45 46  1  0
 46 47  1  0
M  END
$$$$
