7XI7_4RI_A_201
     RDKit          3D

 20 21  0  0  0  0  0  0  0  0999 V2000
   -3.5010  -16.8430    2.1950 C   0  0  0  0  0  0  0  0  0  0  0  0
   -3.2290  -17.6350    1.1060 C   0  0  0  0  0  0  0  0  0  0  0  0
   -2.7780  -18.9280    1.3290 C   0  0  0  0  0  0  0  0  0  0  0  0
   -2.6380  -19.4060    2.5460 N   0  0  0  0  0  0  0  0  0  0  0  0
   -3.3540  -17.3160    3.4210 N   0  0  0  0  0  0  0  0  0  0  0  0
   -1.0150  -12.5870   -1.5440 C   0  0  0  0  0  0  0  0  0  0  0  0
   -0.7900  -13.4320   -0.2880 C   0  0  0  0  0  0  0  0  0  0  0  0
   -2.1090  -13.5720    0.4660 C   0  0  0  0  0  0  0  0  0  0  0  0
   -1.7960  -14.2660    1.7920 C   0  0  0  0  0  0  0  0  0  0  0  0
   -3.0490  -14.3830    2.6560 C   0  0  0  0  0  0  0  0  0  0  0  0
   -4.0040  -15.4070    2.0440 C   0  0  0  0  0  0  0  0  0  0  0  0
   -2.9360  -18.5690    3.5270 C   0  0  0  0  0  0  0  0  0  0  0  0
   -2.7770  -19.0530    4.8830 N   0  0  0  0  0  0  0  0  0  0  0  0
   -2.4620  -19.8020    0.2340 N   0  0  0  0  0  0  0  0  0  0  0  0
   -3.3560  -17.1390   -0.3380 C   0  0  0  0  0  0  0  0  0  0  0  0
   -4.5330  -16.9930   -0.9420 C   0  0  0  0  0  0  0  0  0  0  0  0
   -4.5600  -16.5050   -2.3870 C   0  0  0  0  0  0  0  0  0  0  0  0
   -3.4270  -16.2540   -3.0230 C   0  0  0  0  0  0  0  0  0  0  0  0
   -2.0920  -16.4330   -2.3240 C   0  0  0  0  0  0  0  0  0  0  0  0
   -2.0630  -16.8490   -1.0770 C   0  0  0  0  0  0  0  0  0  0  0  0
  1  2  2  0
  2  3  1  0
  3  4  2  0
  1  5  1  0
  6  7  1  0
  7  8  1  0
  8  9  1  0
  9 10  1  0
 10 11  1  0
  1 11  1  0
  5 12  2  0
  4 12  1  0
 12 13  1  0
  3 14  1  0
  2 15  1  0
 15 16  2  0
 16 17  1  0
 17 18  2  0
 18 19  1  0
 15 20  1  0
 19 20  2  0
M  END
$$$$
