7WL4_JFU_A_202
     RDKit          3D

 34 38  0  0  0  0  0  0  0  0999 V2000
    4.3800   12.8300   29.6360 F   0  0  0  0  0  0  0  0  0  0  0  0
    4.7650   11.5840   29.4550 C   0  0  0  0  0  0  0  0  0  0  0  0
    3.8920   10.6200   28.9540 C   0  0  0  0  0  0  0  0  0  0  0  0
    4.3250    9.3280   28.7760 C   0  0  0  0  0  0  0  0  0  0  0  0
    3.5440    8.4010   28.3410 F   0  0  0  0  0  0  0  0  0  0  0  0
    5.6200    8.9870   29.0770 C   0  0  0  0  0  0  0  0  0  0  0  0
    6.4880    9.9360   29.5700 C   0  0  0  0  0  0  0  0  0  0  0  0
    6.0680   11.2340   29.7720 C   0  0  0  0  0  0  0  0  0  0  0  0
    7.1920   12.3990   30.4400 S   0  0  0  0  0  0  0  0  0  0  0  0
    8.4960   11.6600   30.6520 O   0  0  0  0  0  0  0  0  0  0  0  0
    7.2960   13.5970   29.5070 O   0  0  0  0  0  0  0  0  0  0  0  0
    6.5880   12.8350   31.9110 N   0  0  0  0  0  0  0  0  0  0  0  0
    6.4470   11.9040   32.9060 C   0  0  0  0  0  0  0  0  0  0  0  0
    7.5510   11.2980   33.5340 C   0  0  0  0  0  0  0  0  0  0  0  0
    7.3340   10.3630   34.5660 C   0  0  0  0  0  0  0  0  0  0  0  0
    6.0840   10.0570   34.9530 C   0  0  0  0  0  0  0  0  0  0  0  0
    5.5910    9.2230   35.8940 N   0  0  0  0  0  0  0  0  0  0  0  0
    6.4710    8.3790   36.7370 C   0  0  0  0  0  0  0  0  0  0  0  0
    6.7170    7.0110   36.0960 C   0  0  0  0  0  0  0  0  0  0  0  0
    4.2470    9.3200   35.8470 C   0  0  0  0  0  0  0  0  0  0  0  0
    3.4930    8.6720   36.5860 O   0  0  0  0  0  0  0  0  0  0  0  0
    3.8870   10.2140   34.8760 C   0  0  0  0  0  0  0  0  0  0  0  0
    2.7360   10.7220   34.3560 C   0  0  0  0  0  0  0  0  0  0  0  0
    5.0490   10.6490   34.3560 C   0  0  0  0  0  0  0  0  0  0  0  0
    5.1600   11.5750   33.3570 C   0  0  0  0  0  0  0  0  0  0  0  0
    4.0090   12.0740   32.8330 N   0  0  0  0  0  0  0  0  0  0  0  0
    2.7960   11.7060   33.3170 C   0  0  0  0  0  0  0  0  0  0  0  0
    1.6950   12.2670   32.7220 N   0  0  0  0  0  0  0  0  0  0  0  0
    0.3940   11.6470   32.7790 C   0  0  0  0  0  0  0  0  0  0  0  0
   -0.7020   12.6830   32.6060 C   0  0  0  0  0  0  0  0  0  0  0  0
   -0.6180   13.3720   31.3310 N   0  0  0  0  0  0  0  0  0  0  0  0
   -1.7230   14.2860   31.1310 C   0  0  0  0  0  0  0  0  0  0  0  0
    0.6000   14.2060   31.5090 C   0  0  0  0  0  0  0  0  0  0  0  0
    1.8590   13.3550   31.7310 C   0  0  0  0  0  0  0  0  0  0  0  0
  1  2  1  0
  2  3  2  0
  3  4  1  0
  4  5  1  0
  4  6  2  0
  6  7  1  0
  2  8  1  0
  7  8  2  0
  8  9  1  0
  9 10  2  0
  9 11  2  0
  9 12  1  0
 12 13  1  0
 13 14  2  0
 14 15  1  0
 15 16  2  0
 16 17  1  0
 17 18  1  0
 18 19  1  0
 17 20  1  0
 20 21  2  0
 20 22  1  0
 22 23  2  0
 16 24  1  0
 22 24  1  0
 13 25  1  0
 24 25  2  0
 25 26  1  0
 26 27  2  0
 23 27  1  0
 27 28  1  0
 28 29  1  0
 29 30  1  0
 30 31  1  0
 31 32  1  0
 31 33  1  0
 33 34  1  0
 28 34  1  0
M  END
$$$$
7WL4_JFU_A_201
     RDKit          3D

 34 38  0  0  0  0  0  0  0  0999 V2000
    4.4360    5.8590   24.6140 F   0  0  0  0  0  0  0  0  0  0  0  0
    4.9900    7.0820   24.7580 C   0  0  0  0  0  0  0  0  0  0  0  0
    4.1750    8.1470   25.1330 C   0  0  0  0  0  0  0  0  0  0  0  0
    4.7170    9.4040   25.2890 C   0  0  0  0  0  0  0  0  0  0  0  0
    3.9380   10.4140   25.6540 F   0  0  0  0  0  0  0  0  0  0  0  0
    6.0970    9.6050   25.0820 C   0  0  0  0  0  0  0  0  0  0  0  0
    6.8890    8.5460   24.7230 C   0  0  0  0  0  0  0  0  0  0  0  0
    6.3370    7.2850   24.5580 C   0  0  0  0  0  0  0  0  0  0  0  0
    7.4010    5.9410   24.0360 S   0  0  0  0  0  0  0  0  0  0  0  0
    8.8230    6.4920   24.0010 O   0  0  0  0  0  0  0  0  0  0  0  0
    7.1900    4.7490   24.9700 O   0  0  0  0  0  0  0  0  0  0  0  0
    6.8670    5.5750   22.5420 N   0  0  0  0  0  0  0  0  0  0  0  0
    6.7650    6.4790   21.5430 C   0  0  0  0  0  0  0  0  0  0  0  0
    7.8820    7.1290   20.9650 C   0  0  0  0  0  0  0  0  0  0  0  0
    7.7010    8.0410   19.9310 C   0  0  0  0  0  0  0  0  0  0  0  0
    6.4690    8.2920   19.4360 C   0  0  0  0  0  0  0  0  0  0  0  0
    6.0020    9.0800   18.4620 N   0  0  0  0  0  0  0  0  0  0  0  0
    6.8780    9.9210   17.5420 C   0  0  0  0  0  0  0  0  0  0  0  0
    7.0380   11.2820   18.1130 C   0  0  0  0  0  0  0  0  0  0  0  0
    4.6600    8.9370   18.4160 C   0  0  0  0  0  0  0  0  0  0  0  0
    3.9320    9.5300   17.5770 O   0  0  0  0  0  0  0  0  0  0  0  0
    4.2800    8.0160   19.3750 C   0  0  0  0  0  0  0  0  0  0  0  0
    3.1390    7.4560   19.8180 C   0  0  0  0  0  0  0  0  0  0  0  0
    5.4280    7.6510   19.9770 C   0  0  0  0  0  0  0  0  0  0  0  0
    5.5010    6.7390   20.9870 C   0  0  0  0  0  0  0  0  0  0  0  0
    4.3320    6.1820   21.4310 N   0  0  0  0  0  0  0  0  0  0  0  0
    3.1370    6.4960   20.8690 C   0  0  0  0  0  0  0  0  0  0  0  0
    1.9990    5.9180   21.3800 N   0  0  0  0  0  0  0  0  0  0  0  0
    0.6670    6.5670   21.2750 C   0  0  0  0  0  0  0  0  0  0  0  0
   -0.4250    5.5100   21.3670 C   0  0  0  0  0  0  0  0  0  0  0  0
   -0.3940    4.6870   22.6060 N   0  0  0  0  0  0  0  0  0  0  0  0
   -1.4080    3.6340   22.6400 C   0  0  0  0  0  0  0  0  0  0  0  0
    0.8720    3.9390   22.4260 C   0  0  0  0  0  0  0  0  0  0  0  0
    2.0800    4.8160   22.4020 C   0  0  0  0  0  0  0  0  0  0  0  0
  1  2  1  0
  2  3  2  0
  3  4  1  0
  4  5  1  0
  4  6  2  0
  6  7  1  0
  2  8  1  0
  7  8  2  0
  8  9  1  0
  9 10  2  0
  9 11  2  0
  9 12  1  0
 12 13  1  0
 13 14  2  0
 14 15  1  0
 15 16  2  0
 16 17  1  0
 17 18  1  0
 18 19  1  0
 17 20  1  0
 20 21  2  0
 20 22  1  0
 22 23  2  0
 16 24  1  0
 22 24  1  0
 13 25  1  0
 24 25  2  0
 25 26  1  0
 26 27  2  0
 23 27  1  0
 27 28  1  0
 28 29  1  0
 29 30  1  0
 30 31  1  0
 31 32  1  0
 31 33  1  0
 33 34  1  0
 28 34  1  0
M  END
$$$$
7WL4_JFU_D_201
     RDKit          3D

 34 38  0  0  0  0  0  0  0  0999 V2000
  -25.4880   11.2380   29.0160 F   0  0  0  0  0  0  0  0  0  0  0  0
  -24.9370    9.9910   28.8710 C   0  0  0  0  0  0  0  0  0  0  0  0
  -25.7600    8.9260   28.5040 C   0  0  0  0  0  0  0  0  0  0  0  0
  -25.2180    7.6630   28.3470 C   0  0  0  0  0  0  0  0  0  0  0  0
  -26.0080    6.6570   28.0040 F   0  0  0  0  0  0  0  0  0  0  0  0
  -23.8460    7.4450   28.5680 C   0  0  0  0  0  0  0  0  0  0  0  0
  -23.0420    8.4960   28.9240 C   0  0  0  0  0  0  0  0  0  0  0  0
  -23.5890    9.7710   29.0850 C   0  0  0  0  0  0  0  0  0  0  0  0
  -22.5310   11.1100   29.6220 S   0  0  0  0  0  0  0  0  0  0  0  0
  -21.1160   10.5920   29.6670 O   0  0  0  0  0  0  0  0  0  0  0  0
  -22.7140   12.3170   28.7060 O   0  0  0  0  0  0  0  0  0  0  0  0
  -23.0710   11.5390   31.1310 N   0  0  0  0  0  0  0  0  0  0  0  0
  -23.1550   10.6390   32.1290 C   0  0  0  0  0  0  0  0  0  0  0  0
  -22.0260   10.0060   32.7110 C   0  0  0  0  0  0  0  0  0  0  0  0
  -22.2130    9.0630   33.7210 C   0  0  0  0  0  0  0  0  0  0  0  0
  -23.4490    8.7880   34.2060 C   0  0  0  0  0  0  0  0  0  0  0  0
  -23.9230    8.0000   35.1850 N   0  0  0  0  0  0  0  0  0  0  0  0
  -23.0220    7.1780   36.1080 C   0  0  0  0  0  0  0  0  0  0  0  0
  -22.8320    5.8120   35.5640 C   0  0  0  0  0  0  0  0  0  0  0  0
  -25.2730    8.1450   35.2220 C   0  0  0  0  0  0  0  0  0  0  0  0
  -26.0170    7.5610   36.0530 O   0  0  0  0  0  0  0  0  0  0  0  0
  -25.6490    9.0610   34.2590 C   0  0  0  0  0  0  0  0  0  0  0  0
  -26.7960    9.6140   33.8190 C   0  0  0  0  0  0  0  0  0  0  0  0
  -24.4940    9.4310   33.6660 C   0  0  0  0  0  0  0  0  0  0  0  0
  -24.4280   10.3500   32.6650 C   0  0  0  0  0  0  0  0  0  0  0  0
  -25.5940   10.9180   32.2240 N   0  0  0  0  0  0  0  0  0  0  0  0
  -26.8000   10.5790   32.7730 C   0  0  0  0  0  0  0  0  0  0  0  0
  -27.9350   11.1510   32.2650 N   0  0  0  0  0  0  0  0  0  0  0  0
  -29.2730   10.5470   32.4240 C   0  0  0  0  0  0  0  0  0  0  0  0
  -30.3450   11.6280   32.3510 C   0  0  0  0  0  0  0  0  0  0  0  0
  -30.3160   12.4360   31.1080 N   0  0  0  0  0  0  0  0  0  0  0  0
  -31.3800   13.4250   31.1210 C   0  0  0  0  0  0  0  0  0  0  0  0
  -29.0380   13.1570   31.2450 C   0  0  0  0  0  0  0  0  0  0  0  0
  -27.8410   12.2250   31.2230 C   0  0  0  0  0  0  0  0  0  0  0  0
  1  2  1  0
  2  3  2  0
  3  4  1  0
  4  5  1  0
  4  6  2  0
  6  7  1  0
  2  8  1  0
  7  8  2  0
  8  9  1  0
  9 10  2  0
  9 11  2  0
  9 12  1  0
 12 13  1  0
 13 14  2  0
 14 15  1  0
 15 16  2  0
 16 17  1  0
 17 18  1  0
 18 19  1  0
 17 20  1  0
 20 21  2  0
 20 22  1  0
 22 23  2  0
 16 24  1  0
 22 24  1  0
 13 25  1  0
 24 25  2  0
 25 26  1  0
 26 27  2  0
 23 27  1  0
 27 28  1  0
 28 29  1  0
 29 30  1  0
 30 31  1  0
 31 32  1  0
 31 33  1  0
 33 34  1  0
 28 34  1  0
M  END
$$$$
7WL4_JFU_C_201
     RDKit          3D

 34 38  0  0  0  0  0  0  0  0999 V2000
  -25.4980    4.2750   24.0200 F   0  0  0  0  0  0  0  0  0  0  0  0
  -25.1520    5.4710   24.1840 C   0  0  0  0  0  0  0  0  0  0  0  0
  -26.0580    6.3940   24.6610 C   0  0  0  0  0  0  0  0  0  0  0  0
  -25.6500    7.6890   24.8300 C   0  0  0  0  0  0  0  0  0  0  0  0
  -26.4630    8.5700   25.2540 F   0  0  0  0  0  0  0  0  0  0  0  0
  -24.3580    8.0610   24.5440 C   0  0  0  0  0  0  0  0  0  0  0  0
  -23.4470    7.1450   24.0610 C   0  0  0  0  0  0  0  0  0  0  0  0
  -23.8560    5.8470   23.8720 C   0  0  0  0  0  0  0  0  0  0  0  0
  -22.7620    4.6560   23.2380 S   0  0  0  0  0  0  0  0  0  0  0  0
  -21.4170    5.3320   23.0140 O   0  0  0  0  0  0  0  0  0  0  0  0
  -22.7440    3.4640   24.1930 O   0  0  0  0  0  0  0  0  0  0  0  0
  -23.3570    4.2480   21.7570 N   0  0  0  0  0  0  0  0  0  0  0  0
  -23.5040    5.1930   20.7680 C   0  0  0  0  0  0  0  0  0  0  0  0
  -22.3980    5.7990   20.1310 C   0  0  0  0  0  0  0  0  0  0  0  0
  -22.6270    6.7320   19.1070 C   0  0  0  0  0  0  0  0  0  0  0  0
  -23.8680    7.0370   18.7150 C   0  0  0  0  0  0  0  0  0  0  0  0
  -24.3520    7.8680   17.7700 N   0  0  0  0  0  0  0  0  0  0  0  0
  -23.4870    8.6730   16.8710 C   0  0  0  0  0  0  0  0  0  0  0  0
  -23.2130   10.0560   17.4670 C   0  0  0  0  0  0  0  0  0  0  0  0
  -25.6880    7.7940   17.8150 C   0  0  0  0  0  0  0  0  0  0  0  0
  -26.4290    8.4460   17.0530 O   0  0  0  0  0  0  0  0  0  0  0  0
  -26.0510    6.9040   18.7900 C   0  0  0  0  0  0  0  0  0  0  0  0
  -27.1920    6.3890   19.2950 C   0  0  0  0  0  0  0  0  0  0  0  0
  -24.8970    6.4620   19.3200 C   0  0  0  0  0  0  0  0  0  0  0  0
  -24.7870    5.5350   20.3180 C   0  0  0  0  0  0  0  0  0  0  0  0
  -25.9430    5.0290   20.8290 N   0  0  0  0  0  0  0  0  0  0  0  0
  -27.1460    5.4130   20.3360 C   0  0  0  0  0  0  0  0  0  0  0  0
  -28.2530    4.8550   20.9200 N   0  0  0  0  0  0  0  0  0  0  0  0
  -29.5450    5.4780   20.8810 C   0  0  0  0  0  0  0  0  0  0  0  0
  -30.6730    4.4600   21.0580 C   0  0  0  0  0  0  0  0  0  0  0  0
  -30.5710    3.7410   22.3220 N   0  0  0  0  0  0  0  0  0  0  0  0
  -31.5750    2.6900   22.5350 C   0  0  0  0  0  0  0  0  0  0  0  0
  -29.3310    2.9400   22.1460 C   0  0  0  0  0  0  0  0  0  0  0  0
  -28.0800    3.7870   21.9290 C   0  0  0  0  0  0  0  0  0  0  0  0
  1  2  1  0
  2  3  2  0
  3  4  1  0
  4  5  1  0
  4  6  2  0
  6  7  1  0
  2  8  1  0
  7  8  2  0
  8  9  1  0
  9 10  2  0
  9 11  2  0
  9 12  1  0
 12 13  1  0
 13 14  2  0
 14 15  1  0
 15 16  2  0
 16 17  1  0
 17 18  1  0
 18 19  1  0
 17 20  1  0
 20 21  2  0
 20 22  1  0
 22 23  2  0
 16 24  1  0
 22 24  1  0
 13 25  1  0
 24 25  2  0
 25 26  1  0
 26 27  2  0
 23 27  1  0
 27 28  1  0
 28 29  1  0
 29 30  1  0
 30 31  1  0
 31 32  1  0
 31 33  1  0
 33 34  1  0
 28 34  1  0
M  END
$$$$
