7WL4_JFU_A_202
     RDKit          3D

 34 38  0  0  0  0  0  0  0  0999 V2000
    4.3800   12.8300   29.6360 F   0  0  0  0  0  0  0  0  0  0  0  0
    4.7650   11.5840   29.4550 C   0  0  0  0  0  0  0  0  0  0  0  0
    3.8920   10.6200   28.9540 C   0  0  0  0  0  0  0  0  0  0  0  0
    4.3250    9.3280   28.7760 C   0  0  0  0  0  0  0  0  0  0  0  0
    3.5440    8.4010   28.3410 F   0  0  0  0  0  0  0  0  0  0  0  0
    5.6200    8.9870   29.0770 C   0  0  0  0  0  0  0  0  0  0  0  0
    6.4880    9.9360   29.5700 C   0  0  0  0  0  0  0  0  0  0  0  0
    6.0680   11.2340   29.7720 C   0  0  0  0  0  0  0  0  0  0  0  0
    7.1920   12.3990   30.4400 S   0  0  0  0  0  0  0  0  0  0  0  0
    8.4960   11.6600   30.6520 O   0  0  0  0  0  0  0  0  0  0  0  0
    7.2960   13.5970   29.5070 O   0  0  0  0  0  0  0  0  0  0  0  0
    6.5880   12.8350   31.9110 N   0  0  0  0  0  0  0  0  0  0  0  0
    6.4470   11.9040   32.9060 C   0  0  0  0  0  0  0  0  0  0  0  0
    7.5510   11.2980   33.5340 C   0  0  0  0  0  0  0  0  0  0  0  0
    7.3340   10.3630   34.5660 C   0  0  0  0  0  0  0  0  0  0  0  0
    6.0840   10.0570   34.9530 C   0  0  0  0  0  0  0  0  0  0  0  0
    5.5910    9.2230   35.8940 N   0  0  0  0  0  0  0  0  0  0  0  0
    6.4710    8.3790   36.7370 C   0  0  0  0  0  0  0  0  0  0  0  0
    6.7170    7.0110   36.0960 C   0  0  0  0  0  0  0  0  0  0  0  0
    4.2470    9.3200   35.8470 C   0  0  0  0  0  0  0  0  0  0  0  0
    3.4930    8.6720   36.5860 O   0  0  0  0  0  0  0  0  0  0  0  0
    3.8870   10.2140   34.8760 C   0  0  0  0  0  0  0  0  0  0  0  0
    2.7360   10.7220   34.3560 C   0  0  0  0  0  0  0  0  0  0  0  0
    5.0490   10.6490   34.3560 C   0  0  0  0  0  0  0  0  0  0  0  0
    5.1600   11.5750   33.3570 C   0  0  0  0  0  0  0  0  0  0  0  0
    4.0090   12.0740   32.8330 N   0  0  0  0  0  0  0  0  0  0  0  0
    2.7960   11.7060   33.3170 C   0  0  0  0  0  0  0  0  0  0  0  0
    1.6950   12.2670   32.7220 N   0  0  0  0  0  0  0  0  0  0  0  0
    0.3940   11.6470   32.7790 C   0  0  0  0  0  0  0  0  0  0  0  0
   -0.7020   12.6830   32.6060 C   0  0  0  0  0  0  0  0  0  0  0  0
   -0.6180   13.3720   31.3310 N   0  0  0  0  0  0  0  0  0  0  0  0
   -1.7230   14.2860   31.1310 C   0  0  0  0  0  0  0  0  0  0  0  0
    0.6000   14.2060   31.5090 C   0  0  0  0  0  0  0  0  0  0  0  0
    1.8590   13.3550   31.7310 C   0  0  0  0  0  0  0  0  0  0  0  0
  1  2  1  0
  2  3  2  0
  3  4  1  0
  4  5  1  0
  4  6  2  0
  6  7  1  0
  2  8  1  0
  7  8  2  0
  8  9  1  0
  9 10  2  0
  9 11  2  0
  9 12  1  0
 12 13  1  0
 13 14  2  0
 14 15  1  0
 15 16  2  0
 16 17  1  0
 17 18  1  0
 18 19  1  0
 17 20  1  0
 20 21  2  0
 20 22  1  0
 22 23  2  0
 16 24  1  0
 22 24  1  0
 13 25  1  0
 24 25  2  0
 25 26  1  0
 26 27  2  0
 23 27  1  0
 27 28  1  0
 28 29  1  0
 29 30  1  0
 30 31  1  0
 31 32  1  0
 31 33  1  0
 33 34  1  0
 28 34  1  0
M  END
$$$$
