7L03_F9F_A_301
     RDKit          3D

 33 33  0  0  0  0  0  0  0  0999 V2000
  -34.8055  -10.2135   11.2609 C   0  0  0  0  0  0  0  0  0  0  0  0
  -35.7688   -9.3452   10.7692 C   0  0  0  0  0  0  0  0  0  0  0  0
  -37.0482   -9.3680   11.2854 C   0  0  0  0  0  0  0  0  0  0  0  0
  -37.3684  -10.2604   12.2949 C   0  0  0  0  0  0  0  0  0  0  0  0
  -36.4079  -11.1282   12.7876 C   0  0  0  0  0  0  0  0  0  0  0  0
  -35.1285  -11.1054   12.2714 C   0  0  0  0  0  0  0  0  0  0  0  0
  -33.4878  -10.1898   10.7294 O   0  0  0  0  0  0  0  0  0  0  0  0
  -32.5838  -10.9753   11.3020 C   0  0  2  0  0  0  0  0  0  0  0  0
  -31.9291  -10.3457   12.2556 F   0  0  0  0  0  0  0  0  0  0  0  0
  -31.6906  -11.4046   10.4305 F   0  0  0  0  0  0  0  0  0  0  0  0
  -33.1383  -12.0384   11.8463 F   0  0  0  0  0  0  0  0  0  0  0  0
  -39.0019  -10.2893   12.9537 S   0  0  1  0  0  6  0  0  0  0  0  0
  -39.2143   -8.9240   13.7846 N   0  0  0  0  0  0  0  0  0  0  0  0
  -39.0680   -8.9341   15.2468 C   0  0  0  0  0  0  0  0  0  0  0  0
  -40.0709   -9.8573   15.8870 C   0  0  0  0  0  0  0  0  0  0  0  0
  -40.2633  -11.0300   15.0479 O   0  0  0  0  0  0  0  0  0  0  0  0
  -39.3224  -11.2182   13.7490 P   0  0  1  0  0  5  0  0  0  0  0  0
  -37.9701  -11.6554   14.2791 O   0  0  0  0  0  0  0  0  0  0  0  0
  -39.9962  -12.2804   12.9030 O   0  0  0  0  0  0  0  0  0  0  0  0
  -39.2784   -9.8634   13.0678 O   0  0  0  0  0  0  0  0  0  0  0  0
  -39.9183  -10.2517   11.8534 O   0  0  0  0  0  0  0  0  0  0  0  0
  -39.0742  -11.3631   13.8967 O   0  0  0  0  0  0  0  0  0  0  0  0
  -35.5287   -8.6819   10.0170 H   0  0  0  0  0  0  0  0  0  0  0  0
  -37.7652   -8.7217   10.9204 H   0  0  0  0  0  0  0  0  0  0  0  0
  -36.6487  -11.7911   13.5399 H   0  0  0  0  0  0  0  0  0  0  0  0
  -34.4121  -11.7519   12.6371 H   0  0  0  0  0  0  0  0  0  0  0  0
  -38.5396   -8.2487   13.4228 H   0  0  0  0  0  0  0  0  0  0  0  0
  -38.0801   -9.2621   15.4976 H   0  0  0  0  0  0  0  0  0  0  0  0
  -39.2393   -7.9439   15.6114 H   0  0  0  0  0  0  0  0  0  0  0  0
  -39.7106  -10.1625   16.8461 H   0  0  0  0  0  0  0  0  0  0  0  0
  -41.0034   -9.3440   16.0005 H   0  0  0  0  0  0  0  0  0  0  0  0
  -38.0547  -12.5241   14.7030 H   0  0  0  0  0  0  0  0  0  0  0  0
  -38.8392   -9.2242   13.6497 H   0  0  0  0  0  0  0  0  0  0  0  0
  1  2  4  0
  2  3  4  0
  3  4  4  0
  4  5  4  0
  1  6  4  0
  5  6  4  0
  1  7  1  0
  7  8  1  0
  8  9  1  6
  8 10  1  0
  8 11  1  0
  4 12  1  0
 12 13  1  6
 13 14  1  0
 14 15  1  0
 15 16  1  0
 17 16  1  6
 17 18  1  0
 17 19  2  0
 17 20  1  0
 12 21  2  0
 12 22  2  0
  2 23  1  0
  3 24  1  0
  5 25  1  0
  6 26  1  0
 13 27  1  0
 14 28  1  0
 14 29  1  0
 15 30  1  0
 15 31  1  0
 18 32  1  0
 20 33  1  0
M  END
