
     RDKit          3D

 57 63  0  0  0  0  0  0  0  0999 V2000
  -15.8259   20.0642  -16.3721 C   0  0  0  0  0  0  0  0  0  0  0  0
  -19.8344   18.0547  -14.8430 C   0  0  0  0  0  0  0  0  0  0  0  0
  -14.0293   15.5468  -16.7178 C   0  0  0  0  0  0  0  0  0  0  0  0
  -12.5882   13.6381  -15.4945 C   0  0  0  0  0  0  0  0  0  0  0  0
  -14.0913   15.3648  -15.3355 C   0  0  0  0  0  0  0  0  0  0  0  0
  -11.0133   11.9267  -17.0732 C   0  0  0  0  0  0  0  0  0  0  0  0
  -13.5672   19.0187  -16.4996 C   0  0  1  0  0  0  0  0  0  0  0  0
  -12.9756   17.9794  -17.4679 C   0  0  0  0  0  0  0  0  0  0  0  0
  -14.1986   17.3930  -18.1816 C   0  0  2  0  0  0  0  0  0  0  0  0
  -15.0976   18.6266  -18.3293 C   0  0  0  0  0  0  0  0  0  0  0  0
  -12.7398   20.3169  -16.4671 C   0  0  0  0  0  0  0  0  0  0  0  0
  -12.8466   22.5874  -15.4518 C   0  0  2  0  0  0  0  0  0  0  0  0
  -17.0609   20.6014  -17.1375 C   0  0  2  0  0  0  0  0  0  0  0  0
  -18.1438   18.4927  -16.4422 C   0  0  0  0  0  0  0  0  0  0  0  0
  -17.5868   21.8765  -16.4403 C   0  0  0  0  0  0  0  0  0  0  0  0
  -18.5071   22.7849  -17.2695 C   0  0  0  0  0  0  0  0  0  0  0  0
  -12.5606   13.8056  -16.9023 C   0  0  0  0  0  0  0  0  0  0  0  0
  -11.7754   12.9424  -17.6596 C   0  0  0  0  0  0  0  0  0  0  0  0
  -11.0191   11.7884  -15.6898 C   0  0  0  0  0  0  0  0  0  0  0  0
  -11.8129   12.6419  -14.9151 C   0  0  0  0  0  0  0  0  0  0  0  0
   -9.1671   11.7611  -18.5469 C   0  0  0  0  0  0  0  0  0  0  0  0
  -14.9848   16.1973  -14.4747 C   0  0  0  0  0  0  0  0  0  0  0  0
  -11.4406   23.1758  -15.4177 C   0  0  0  0  0  0  0  0  0  0  0  0
   -8.3788   22.2004  -17.9660 C   0  0  0  0  0  0  0  0  0  0  0  0
   -7.2320   21.4411  -17.3447 C   0  0  0  0  0  0  0  0  0  0  0  0
   -6.9585   22.5459  -18.3346 C   0  0  0  0  0  0  0  0  0  0  0  0
   -9.2988   21.5443  -18.9340 C   0  0  0  0  0  0  0  0  0  0  0  0
  -13.9189   23.2940  -16.2863 C   0  0  2  0  0  0  0  0  0  0  0  0
  -13.7346   24.5318  -17.0459 C   0  0  0  0  0  0  0  0  0  0  0  0
  -14.7111   25.2303  -17.6543 C   0  0  0  0  0  0  0  0  0  0  0  0
  -16.1819   24.8924  -17.6299 C   0  0  0  0  0  0  0  0  0  0  0  0
  -16.5290   23.8065  -18.6523 C   0  0  0  0  0  0  0  0  0  0  0  0
  -13.9589   23.4109  -14.7899 C   0  0  0  0  0  0  0  0  0  0  0  0
  -17.9755   23.3029  -18.6133 C   0  0  0  0  0  0  0  0  0  0  0  0
  -19.5351   17.1067  -13.7104 C   0  0  0  0  0  0  0  0  0  0  0  0
  -18.2517   16.2877  -13.8146 C   0  0  0  0  0  0  0  0  0  0  0  0
  -19.5777   15.5984  -13.9494 C   0  0  0  0  0  0  0  0  0  0  0  0
  -19.9000   17.6657  -12.3646 C   0  0  0  0  0  0  0  0  0  0  0  0
  -21.2433   17.7450  -12.2051 F   0  0  0  0  0  0  0  0  0  0  0  0
  -19.4165   16.8772  -11.3704 F   0  0  0  0  0  0  0  0  0  0  0  0
  -19.4053   18.9090  -12.1900 F   0  0  0  0  0  0  0  0  0  0  0  0
  -14.8725   19.3673  -17.0875 N   0  0  0  0  0  0  0  0  0  0  0  0
  -12.9900   21.1231  -15.3646 N   0  0  0  0  0  0  0  0  0  0  0  0
  -18.1139   19.6049  -17.2294 N   0  0  0  0  0  0  0  0  0  0  0  0
  -13.2782   14.7717  -17.5175 N   0  0  0  0  0  0  0  0  0  0  0  0
  -13.3488   14.4156  -14.7092 N   0  0  0  0  0  0  0  0  0  0  0  0
  -10.5398   22.5914  -16.3183 N   0  0  0  0  0  0  0  0  0  0  0  0
  -12.0036   20.6771  -17.3877 O   0  0  0  0  0  0  0  0  0  0  0  0
  -15.6493   20.2937  -15.1685 O   0  0  0  0  0  0  0  0  0  0  0  0
  -18.6610   18.7970  -15.2337 O   0  0  0  0  0  0  0  0  0  0  0  0
  -17.7602   17.3855  -16.7982 O   0  0  0  0  0  0  0  0  0  0  0  0
  -14.8629   16.4779  -17.2927 O   0  0  0  0  0  0  0  0  0  0  0  0
  -10.3118   11.1551  -17.9634 O   0  0  0  0  0  0  0  0  0  0  0  0
  -11.1750   24.1296  -14.7018 O   0  0  0  0  0  0  0  0  0  0  0  0
   -9.7220   24.4631  -17.7608 O   0  0  0  0  0  0  0  0  0  0  0  0
   -8.2971   23.6944  -15.8183 O   0  0  0  0  0  0  0  0  0  0  0  0
   -9.2159   23.4123  -16.8983 S   0  0  2  0  0  6  0  0  0  0  0  0
  3  5  4  0
  7  8  1  6
  8  9  1  0
  9 10  1  0
  7 11  1  0
  1 13  1  0
 13 15  1  0
 15 16  1  0
  4 17  4  0
 17 18  4  0
  6 18  4  0
  6 19  4  0
  4 20  4  0
 19 20  4  0
  5 22  1  0
 12 23  1  6
 24 25  1  0
 24 26  1  0
 25 26  1  0
 24 27  1  0
 12 28  1  0
 28 29  1  0
 29 30  2  0
 30 31  1  0
 31 32  1  0
 28 33  1  1
 12 33  1  0
 32 34  1  0
 16 34  1  0
  2 35  1  0
 35 36  1  0
 36 37  1  0
 35 37  1  0
 35 38  1  0
 38 39  1  0
 38 40  1  0
 38 41  1  0
  1 42  1  0
  7 42  1  0
 10 42  1  0
 12 43  1  0
 11 43  1  0
 14 44  1  0
 13 44  1  1
  3 45  4  0
 17 45  4  0
  5 46  4  0
  4 46  4  0
 23 47  1  0
 11 48  2  0
  1 49  2  0
  2 50  1  0
 14 50  1  0
 14 51  2  0
  3 52  1  0
  9 52  1  1
  6 53  1  0
 21 53  1  0
 23 54  2  0
 55 57  2  0
 57 47  1  1
 56 57  2  0
 24 57  1  0
M  END
