7T9O_GEI_A_304
     RDKit          3D

 41 44  0  0  0  0  0  0  0  0999 V2000
   15.8281   33.6897   -8.4687 C   0  0  2  0  0  0  0  0  0  0  0  0
   15.2728   32.9652   -7.2350 C   0  0  0  0  0  0  0  0  0  0  0  0
   13.9441   33.5188   -6.7424 C   0  0  0  0  0  0  0  0  0  0  0  0
   14.7077   33.8019   -9.5107 C   0  0  0  0  0  0  0  0  0  0  0  0
   13.3819   34.3154   -8.9802 C   0  0  0  0  0  0  0  0  0  0  0  0
   16.9878   32.8861   -9.0631 C   0  0  0  0  0  0  0  0  0  0  0  0
   16.3327   35.0770   -8.0667 C   0  0  0  0  0  0  0  0  0  0  0  0
   11.9270   29.7181   -8.7278 C   0  0  2  0  0  0  0  0  0  0  0  0
   11.1601   28.4394   -8.9751 C   0  0  0  0  0  0  0  0  0  0  0  0
   10.9755   35.7233   -8.2513 C   0  0  0  0  0  0  0  0  0  0  0  0
   12.1618   30.8581   -5.0874 C   0  0  0  0  0  0  0  0  0  0  0  0
   14.1180   40.2073  -10.7307 C   0  0  0  0  0  0  0  0  0  0  0  0
   11.9125   36.4514   -7.5205 C   0  0  0  0  0  0  0  0  0  0  0  0
   13.4920   39.9264   -9.3730 C   0  0  0  0  0  0  0  0  0  0  0  0
   10.6115   34.3274   -7.8487 C   0  0  0  0  0  0  0  0  0  0  0  0
    9.2551   34.0452   -7.6359 C   0  0  0  0  0  0  0  0  0  0  0  0
    8.8489   32.8858   -7.1075 N   0  0  0  0  0  0  0  0  0  0  0  0
    9.7456   31.9664   -6.7424 C   0  0  0  0  0  0  0  0  0  0  0  0
   11.1378   32.1414   -6.9499 C   0  0  0  0  0  0  0  0  0  0  0  0
   11.5708   33.3481   -7.5298 C   0  0  0  0  0  0  0  0  0  0  0  0
   12.9435   33.5461   -7.8145 N   0  0  0  0  0  0  0  0  0  0  0  0
   12.1568   31.0391   -6.6019 C   0  0  2  0  0  0  0  0  0  0  0  0
    9.1775   30.7510   -6.0698 C   0  0  0  0  0  0  0  0  0  0  0  0
    8.1673   35.0383   -7.9210 C   0  0  0  0  0  0  0  0  0  0  0  0
   11.8920   29.6495   -4.7014 O   0  0  0  0  0  0  0  0  0  0  0  0
   11.8775   29.8109   -7.2772 O   0  0  0  0  0  0  0  0  0  0  0  0
   12.4151   31.7778   -4.3239 O   0  0  0  0  0  0  0  0  0  0  0  0
   11.2331   30.8960   -9.3832 C   0  0  0  0  0  0  0  0  0  0  0  0
   13.3594   29.6066   -9.2131 C   0  0  0  0  0  0  0  0  0  0  0  0
   12.3058   37.7151   -7.9164 C   0  0  0  0  0  0  0  0  0  0  0  0
   11.7443   38.2862   -9.0469 C   0  0  0  0  0  0  0  0  0  0  0  0
   10.7878   37.5950   -9.7747 C   0  0  0  0  0  0  0  0  0  0  0  0
   10.4065   36.3276   -9.3749 C   0  0  0  0  0  0  0  0  0  0  0  0
   12.1175   39.5160   -9.5236 O   0  0  0  0  0  0  0  0  0  0  0  0
   13.7142   39.2132  -11.7885 C   0  0  0  0  0  0  0  0  0  0  0  0
   14.6198   38.2849  -12.2772 C   0  0  0  0  0  0  0  0  0  0  0  0
   14.2520   37.3672  -13.2455 C   0  0  0  0  0  0  0  0  0  0  0  0
   12.9656   37.3929  -13.7026 C   0  0  0  0  0  0  0  0  0  0  0  0
   12.0349   38.2804  -13.2489 C   0  0  0  0  0  0  0  0  0  0  0  0
   12.4213   39.1984  -12.2878 C   0  0  0  0  0  0  0  0  0  0  0  0
   12.5966   36.4991  -14.6534 F   0  0  0  0  0  0  0  0  0  0  0  0
  1  2  1  0
  2  3  1  0
  1  4  1  0
  4  5  1  0
  1  6  1  6
  1  7  1  0
  8  9  1  1
 10 13  2  0
 12 14  1  0
 10 15  1  0
 15 16  2  0
 16 17  1  0
 17 18  2  0
 18 19  1  0
 15 20  1  0
 19 20  2  0
  5 21  1  0
 20 21  1  0
  3 21  1  0
 19 22  1  0
 11 22  1  0
 18 23  1  0
 16 24  1  0
 11 25  1  0
  8 26  1  0
 22 26  1  6
 11 27  2  0
  8 28  1  0
  8 29  1  0
 13 30  1  0
 30 31  2  0
 31 32  1  0
 32 33  2  0
 10 33  1  0
 31 34  1  0
 14 34  1  0
 12 35  1  0
 35 36  2  0
 36 37  1  0
 37 38  2  0
 38 39  1  0
 39 40  2  0
 35 40  1  0
 38 41  1  0
M  END
