7N4W_P4V_A_203
     RDKit          3D

 51 54  0  0  0  0  0  0  0  0999 V2000
   -2.8901   -2.6732    1.3375 C   0  0  0  0  0  0  0  0  0  0  0  0
   -2.1000   -4.6772    2.4408 C   0  0  0  0  0  0  0  0  0  0  0  0
   -4.6790   -2.7306   -0.2808 O   0  0  0  0  0  0  0  0  0  0  0  0
    3.8167   -0.6851    4.7715 C   0  0  0  0  0  0  0  0  0  0  0  0
    3.5419    0.1651    3.6627 O   0  0  0  0  0  0  0  0  0  0  0  0
    2.2546    0.4717    3.1928 C   0  0  0  0  0  0  0  0  0  0  0  0
    1.1571   -0.3812    3.4107 C   0  0  0  0  0  0  0  0  0  0  0  0
    2.0730    1.6675    2.4873 C   0  0  0  0  0  0  0  0  0  0  0  0
    3.1899    2.4914    2.2736 O   0  0  0  0  0  0  0  0  0  0  0  0
    3.7216    3.3969    3.2353 C   0  0  0  0  0  0  0  0  0  0  0  0
    0.7915    2.0117    2.0237 C   0  0  0  0  0  0  0  0  0  0  0  0
   -0.3059    1.1704    2.2556 C   0  0  0  0  0  0  0  0  0  0  0  0
   -1.6623    1.5979    1.7731 C   0  0  0  0  0  0  0  0  0  0  0  0
   -2.7673    0.8627    2.5298 C   0  0  0  0  0  0  0  0  0  0  0  0
   -2.5570   -0.5952    2.5113 N   0  0  0  0  0  0  0  0  0  0  0  0
   -2.7452   -1.1868    1.1738 C   0  0  0  0  0  0  0  0  0  0  0  0
   -1.2921   -1.0121    3.1804 C   0  0  2  0  0  0  0  0  0  0  0  0
   -0.1192   -0.0669    2.9078 C   0  0  0  0  0  0  0  0  0  0  0  0
   -0.9079   -2.4968    2.8698 C   0  0  0  0  0  0  0  0  0  0  0  0
   -2.0189   -3.2976    2.2391 C   0  0  0  0  0  0  0  0  0  0  0  0
   -3.0593   -5.4302    1.7680 C   0  0  0  0  0  0  0  0  0  0  0  0
   -3.9440   -4.8233    0.8543 C   0  0  0  0  0  0  0  0  0  0  0  0
   -4.9044   -5.5862    0.1715 O   0  0  0  0  0  0  0  0  0  0  0  0
   -6.0343   -5.0551   -0.5137 C   0  0  0  0  0  0  0  0  0  0  0  0
   -3.8533   -3.4234    0.6270 C   0  0  0  0  0  0  0  0  0  0  0  0
   -4.7878   -2.9611   -1.6809 C   0  0  0  0  0  0  0  0  0  0  0  0
   -1.4120   -5.1740    3.1140 H   0  0  0  0  0  0  0  0  0  0  0  0
    3.4206   -1.7044    4.5787 H   0  0  0  0  0  0  0  0  0  0  0  0
    3.3644   -0.2664    5.6951 H   0  0  0  0  0  0  0  0  0  0  0  0
    4.9147   -0.7520    4.9133 H   0  0  0  0  0  0  0  0  0  0  0  0
    1.2907   -1.2964    3.9704 H   0  0  0  0  0  0  0  0  0  0  0  0
    4.0538    2.8431    4.1386 H   0  0  0  0  0  0  0  0  0  0  0  0
    4.5971    3.9182    2.7969 H   0  0  0  0  0  0  0  0  0  0  0  0
    2.9577    4.1548    3.5096 H   0  0  0  0  0  0  0  0  0  0  0  0
    0.6350    2.9407    1.4913 H   0  0  0  0  0  0  0  0  0  0  0  0
   -1.7442    1.4015    0.6832 H   0  0  0  0  0  0  0  0  0  0  0  0
   -1.7954    2.6903    1.9319 H   0  0  0  0  0  0  0  0  0  0  0  0
   -3.7560    1.1169    2.0890 H   0  0  0  0  0  0  0  0  0  0  0  0
   -2.7889    1.2158    3.5847 H   0  0  0  0  0  0  0  0  0  0  0  0
   -1.8687   -0.9785    0.5213 H   0  0  0  0  0  0  0  0  0  0  0  0
   -3.6499   -0.7557    0.6939 H   0  0  0  0  0  0  0  0  0  0  0  0
   -1.4850   -0.9569    4.2747 H   0  0  0  0  0  0  0  0  0  0  0  0
   -0.5712   -2.9880    3.8097 H   0  0  0  0  0  0  0  0  0  0  0  0
   -0.0544   -2.5327    2.1576 H   0  0  0  0  0  0  0  0  0  0  0  0
   -3.0944   -6.4940    1.9573 H   0  0  0  0  0  0  0  0  0  0  0  0
   -6.6908   -4.5097    0.1969 H   0  0  0  0  0  0  0  0  0  0  0  0
   -5.7035   -4.3782   -1.3294 H   0  0  0  0  0  0  0  0  0  0  0  0
   -6.6121   -5.8904   -0.9595 H   0  0  0  0  0  0  0  0  0  0  0  0
   -5.5189   -2.2433   -2.1056 H   0  0  0  0  0  0  0  0  0  0  0  0
   -3.8090   -2.7912   -2.1763 H   0  0  0  0  0  0  0  0  0  0  0  0
   -5.1609   -3.9888   -1.8739 H   0  0  0  0  0  0  0  0  0  0  0  0
  4  5  1  0
  5  6  1  0
  6  7  4  0
  6  8  4  0
  8  9  1  0
  9 10  1  0
  8 11  4  0
 11 12  4  0
 12 13  1  0
 13 14  1  0
 14 15  1  0
 15 16  1  0
  1 16  1  0
 15 17  1  0
  7 18  4  0
 12 18  4  0
 17 18  1  0
 17 19  1  0
 19 20  1  0
  2 20  4  0
  1 20  4  0
  2 21  4  0
 21 22  4  0
 22 23  1  0
 23 24  1  0
  1 25  4  0
 22 25  4  0
  3 25  1  0
  3 26  1  0
  2 27  1  0
  4 28  1  0
  4 29  1  0
  4 30  1  0
  7 31  1  0
 10 32  1  0
 10 33  1  0
 10 34  1  0
 11 35  1  0
 13 36  1  0
 13 37  1  0
 14 38  1  0
 14 39  1  0
 16 40  1  0
 16 41  1  0
 17 42  1  6
 19 43  1  0
 19 44  1  0
 21 45  1  0
 24 46  1  0
 24 47  1  0
 24 48  1  0
 26 49  1  0
 26 50  1  0
 26 51  1  0
M  END
