1LPZ_CMB_B_301
     RDKit          3D

 54 57  0  0  0  0  0  0  0  0999 V2000
   -1.6240   -3.7399    4.0173 C   0  0  0  0  0  0  0  0  0  0  0  0
   -1.9902   -3.1798    2.7822 C   0  0  0  0  0  0  0  0  0  0  0  0
   -0.9820   -2.6341    1.9782 C   0  0  0  0  0  0  0  0  0  0  0  0
    0.3301   -2.6391    2.3874 C   0  0  0  0  0  0  0  0  0  0  0  0
    0.7278   -3.1907    3.6116 C   0  0  0  0  0  0  0  0  0  0  0  0
   -0.2765   -3.7465    4.4312 C   0  0  0  0  0  0  0  0  0  0  0  0
   -1.1044   -2.0381    0.7689 N   0  0  0  0  0  0  0  0  0  0  0  0
    0.1570   -1.6526    0.4238 C   0  0  0  0  0  0  0  0  0  0  0  0
    1.0707   -2.0128    1.4085 C   0  0  0  0  0  0  0  0  0  0  0  0
    2.1652   -3.1762    4.0432 C   0  0  0  0  0  0  0  0  0  0  0  0
    0.5287   -0.9396   -0.8141 C   0  0  0  0  0  0  0  0  0  0  0  0
    1.5865    0.0301   -0.7980 N   0  0  0  0  0  0  0  0  0  0  0  0
    2.0297    0.7238   -2.0049 C   0  0  0  0  0  0  0  0  0  0  0  0
    2.7917   -0.2189   -2.8957 C   0  0  0  0  0  0  0  0  0  0  0  0
   -2.3574   -1.6893    0.0841 C   0  0  0  0  0  0  0  0  0  0  0  0
   -2.7361   -0.2636    0.3907 C   0  0  0  0  0  0  0  0  0  0  0  0
   -3.3175    0.0596    1.6252 C   0  0  0  0  0  0  0  0  0  0  0  0
   -3.6173    1.3868    1.9357 C   0  0  0  0  0  0  0  0  0  0  0  0
   -3.3354    2.4048    1.0217 C   0  0  0  0  0  0  0  0  0  0  0  0
   -2.7545    2.1039   -0.2233 C   0  0  0  0  0  0  0  0  0  0  0  0
   -2.4560    0.7622   -0.5275 C   0  0  0  0  0  0  0  0  0  0  0  0
    4.0567   -0.6855   -2.5033 C   0  0  0  0  0  0  0  0  0  0  0  0
    4.7593   -1.5843   -3.3134 C   0  0  0  0  0  0  0  0  0  0  0  0
    4.2008   -2.0240   -4.5181 C   0  0  0  0  0  0  0  0  0  0  0  0
    2.9394   -1.5669   -4.9136 C   0  0  0  0  0  0  0  0  0  0  0  0
    2.2352   -0.6680   -4.1048 C   0  0  0  0  0  0  0  0  0  0  0  0
   -2.4305    3.1800   -1.1936 C   0  0  0  0  0  0  0  0  0  0  0  0
   -1.4786    2.9994   -2.0553 N   0  0  0  0  0  0  0  0  0  0  0  0
    6.3381   -2.1640   -2.8152 Cl  0  0  0  0  0  0  0  0  0  0  0  0
    2.2377   -2.1249   -6.4214 Cl  0  0  0  0  0  0  0  0  0  0  0  0
   -0.0682   -1.2011   -1.8923 O   0  0  0  0  0  0  0  0  0  0  0  0
   -3.1625    4.4121   -1.1988 N   0  0  0  0  0  0  0  0  0  0  0  0
   -2.3838   -4.1693    4.6574 H   0  0  0  0  0  0  0  0  0  0  0  0
   -3.0273   -3.1832    2.4793 H   0  0  0  0  0  0  0  0  0  0  0  0
   -0.0220   -4.1823    5.3892 H   0  0  0  0  0  0  0  0  0  0  0  0
    2.1393   -1.8406    1.4069 H   0  0  0  0  0  0  0  0  0  0  0  0
    2.5107   -2.1268    4.1519 H   0  0  0  0  0  0  0  0  0  0  0  0
    2.7899   -3.6886    3.2816 H   0  0  0  0  0  0  0  0  0  0  0  0
    2.3012   -3.6959    5.0154 H   0  0  0  0  0  0  0  0  0  0  0  0
    2.0313    0.2884    0.1114 H   0  0  0  0  0  0  0  0  0  0  0  0
    2.6954    1.5678   -1.7212 H   0  0  0  0  0  0  0  0  0  0  0  0
    1.1523    1.1624   -2.5289 H   0  0  0  0  0  0  0  0  0  0  0  0
   -2.2560   -1.8466   -1.0088 H   0  0  0  0  0  0  0  0  0  0  0  0
   -3.1780   -2.3679    0.3944 H   0  0  0  0  0  0  0  0  0  0  0  0
   -3.5330   -0.7138    2.3507 H   0  0  0  0  0  0  0  0  0  0  0  0
   -4.0588    1.6291    2.8938 H   0  0  0  0  0  0  0  0  0  0  0  0
   -3.5484    3.4266    1.3061 H   0  0  0  0  0  0  0  0  0  0  0  0
   -2.0133    0.5147   -1.4836 H   0  0  0  0  0  0  0  0  0  0  0  0
    4.4916   -0.3540   -1.5680 H   0  0  0  0  0  0  0  0  0  0  0  0
    4.7444   -2.7208   -5.1438 H   0  0  0  0  0  0  0  0  0  0  0  0
    1.2562   -0.3247   -4.4163 H   0  0  0  0  0  0  0  0  0  0  0  0
   -1.2232    3.7302   -2.7567 H   0  0  0  0  0  0  0  0  0  0  0  0
   -4.0268    4.5347   -0.6273 H   0  0  0  0  0  0  0  0  0  0  0  0
   -2.8867    5.1907   -1.8381 H   0  0  0  0  0  0  0  0  0  0  0  0
  1  2  2  0
  2  3  1  0
  3  4  2  0
  4  5  1  0
  1  6  1  0
  5  6  2  0
  3  7  1  0
  7  8  1  0
  4  9  1  0
  8  9  2  0
  5 10  1  0
  8 11  1  0
 11 12  1  0
 12 13  1  0
 13 14  1  0
  7 15  1  0
 15 16  1  0
 16 17  2  0
 17 18  1  0
 18 19  2  0
 19 20  1  0
 16 21  1  0
 20 21  2  0
 14 22  2  0
 22 23  1  0
 23 24  2  0
 24 25  1  0
 14 26  1  0
 25 26  2  0
 20 27  1  0
 27 28  2  0
 23 29  1  0
 25 30  1  0
 11 31  2  0
 27 32  1  0
  1 33  1  0
  2 34  1  0
  6 35  1  0
  9 36  1  0
 10 37  1  0
 10 38  1  0
 10 39  1  0
 12 40  1  0
 13 41  1  0
 13 42  1  0
 15 43  1  0
 15 44  1  0
 17 45  1  0
 18 46  1  0
 19 47  1  0
 21 48  1  0
 22 49  1  0
 24 50  1  0
 26 51  1  0
 28 52  1  0
 32 53  1  0
 32 54  1  0
M  END
