7QGP_DJ8_A_401
     RDKit          3D

 35 39  0  0  0  0  0  0  0  0999 V2000
  -28.3295    3.6540   11.8831 N   0  0  0  0  0  0  0  0  0  0  0  0
  -31.7640    5.1531   12.1508 C   0  0  0  0  0  0  0  0  0  0  0  0
  -29.5287    4.0387   12.4581 C   0  0  0  0  0  0  0  0  0  0  0  0
  -21.1747    0.6963   11.4274 N   0  0  0  0  0  0  0  0  0  0  0  0
  -27.0352    3.6286   12.4623 C   0  0  0  0  0  0  0  0  0  0  0  0
  -26.0894    3.7751   10.3096 O   0  0  0  0  0  0  0  0  0  0  0  0
  -32.5811    7.4532   11.9997 C   0  0  0  0  0  0  0  0  0  0  0  0
  -32.6511    6.1748   10.0219 C   0  0  0  0  0  0  0  0  0  0  0  0
  -32.3359    6.2447   11.3609 C   0  0  0  0  0  0  0  0  0  0  0  0
  -21.2441    2.7521   15.0873 N   0  0  0  0  0  0  0  0  0  0  0  0
  -33.1865    7.2632    9.3546 C   0  0  0  0  0  0  0  0  0  0  0  0
  -33.4260    8.4598   10.0006 C   0  0  0  0  0  0  0  0  0  0  0  0
  -33.1161    8.5450   11.3387 C   0  0  0  0  0  0  0  0  0  0  0  0
  -21.6897    3.5189   16.0298 N   0  0  0  0  0  0  0  0  0  0  0  0
  -29.8909    3.6393   13.5697 O   0  0  0  0  0  0  0  0  0  0  0  0
  -30.4053    4.9321   11.7644 N   0  0  0  0  0  0  0  0  0  0  0  0
  -34.1024    9.8575    9.1861 Cl  0  0  0  0  0  0  0  0  0  0  0  0
  -32.2757    7.6270   13.4393 C   0  0  0  0  0  0  0  0  0  0  0  0
  -25.8659    3.7153   11.6558 C   0  0  0  0  0  0  0  0  0  0  0  0
  -24.5998    3.7228   12.2927 C   0  0  0  0  0  0  0  0  0  0  0  0
  -25.7697    2.9333    9.2192 C   0  0  0  0  0  0  0  0  0  0  0  0
  -24.8883    1.8113    9.7177 C   0  0  0  0  0  0  0  0  0  0  0  0
  -23.7307    1.7421    9.0069 O   0  0  0  0  0  0  0  0  0  0  0  0
  -22.5383    1.7554    9.6547 C   0  0  0  0  0  0  0  0  0  0  0  0
  -22.4179    0.6304   10.6303 C   0  0  0  0  0  0  0  0  0  0  0  0
  -21.1287    1.3559   12.6746 C   0  0  0  0  0  0  0  0  0  0  0  0
  -22.1930    2.1032   13.0055 N   0  0  0  0  0  0  0  0  0  0  0  0
  -22.1825    2.7317   14.1515 C   0  0  0  0  0  0  0  0  0  0  0  0
  -20.1346    2.0042   14.8001 C   0  0  0  0  0  0  0  0  0  0  0  0
  -20.0938    1.3055   13.5764 C   0  0  0  0  0  0  0  0  0  0  0  0
  -23.2825    3.5104   14.4879 C   0  0  0  0  0  0  0  0  0  0  0  0
  -22.9080    4.0210   15.7589 C   0  0  0  0  0  0  0  0  0  0  0  0
  -24.4725    3.6373   13.6512 C   0  0  0  0  0  0  0  0  0  0  0  0
  -25.6712    3.5521   14.4132 C   0  0  0  0  0  0  0  0  0  0  0  0
  -26.9101    3.5494   13.8284 C   0  0  0  0  0  0  0  0  0  0  0  0
  1  3  1  0
  1  5  1  0
  8  9  1  0
  2  9  1  0
  7  9  2  0
  8 11  2  0
 11 12  1  0
 12 13  2  0
  7 13  1  0
 10 14  1  0
  3 15  2  0
  2 16  1  1
  3 16  1  0
 12 17  1  0
 18  7  1  6
  6 19  1  0
  5 19  2  0
 19 20  1  0
 21  6  1  1
 21 22  1  0
 22 23  1  1
 24 23  1  1
 24 25  1  0
 25  4  1  6
  4 26  1  0
 26 27  2  0
 27 28  1  0
 10 28  1  0
 10 29  1  0
 26 30  1  0
 29 30  2  0
 28 31  2  0
 31 32  1  0
 14 32  2  0
 20 33  2  0
 31 33  1  0
 33 34  1  0
  5 35  1  0
 34 35  2  0
M  END
$$$$
