7T2I_E9F_A_1705
     RDKit          3D

 29 33  0  0  0  0  0  0  0  0999 V2000
 -128.8834 -161.5291  121.1251 C   0  0  2  0  0  0  0  0  0  0  0  0
 -127.3548 -163.5681  120.9519 C   0  0  0  0  0  0  0  0  0  0  0  0
 -126.2407 -159.6214  118.5260 C   0  0  0  0  0  0  0  0  0  0  0  0
 -125.9644 -156.1609  117.0577 C   0  0  0  0  0  0  0  0  0  0  0  0
 -128.1492 -156.4405  117.9444 C   0  0  0  0  0  0  0  0  0  0  0  0
 -129.0889 -158.2084  118.9242 C   0  0  0  0  0  0  0  0  0  0  0  0
 -125.2350 -164.3803  119.1261 C   0  0  0  0  0  0  0  0  0  0  0  0
 -123.5206 -162.2006  118.0967 C   0  0  2  0  0  0  0  0  0  0  0  0
 -122.0912 -161.8884  118.4578 C   0  0  0  0  0  0  0  0  0  0  0  0
 -122.5627 -161.8007  116.9903 C   0  0  0  0  0  0  0  0  0  0  0  0
 -124.7938 -161.5015  118.5841 C   0  0  0  0  0  0  0  0  0  0  0  0
 -126.6910 -161.3988  119.8766 C   0  0  0  0  0  0  0  0  0  0  0  0
 -128.8670 -160.6851  122.3778 C   0  0  0  0  0  0  0  0  0  0  0  0
 -129.8843 -162.5638  121.6490 C   0  0  0  0  0  0  0  0  0  0  0  0
 -128.4985 -164.3665  121.5574 C   0  0  0  0  0  0  0  0  0  0  0  0
 -126.6030 -158.2256  118.0461 C   0  0  0  0  0  0  0  0  0  0  0  0
 -125.5937 -157.4507  117.4276 C   0  0  0  0  0  0  0  0  0  0  0  0
 -127.8930 -157.7149  118.3259 C   0  0  0  0  0  0  0  0  0  0  0  0
 -130.0254 -157.2041  118.8893 C   0  0  0  0  0  0  0  0  0  0  0  0
 -125.0481 -160.2149  118.1116 C   0  0  0  0  0  0  0  0  0  0  0  0
 -122.6213 -164.7740  117.8179 N   0  0  0  0  0  0  0  0  0  0  0  0
 -125.6206 -162.0551  119.4598 N   0  0  0  0  0  0  0  0  0  0  0  0
 -127.5533 -162.0707  120.8321 N   0  0  0  0  0  0  0  0  0  0  0  0
 -127.0332 -160.1870  119.4379 N   0  0  0  0  0  0  0  0  0  0  0  0
 -127.1926 -155.6890  117.3229 N   0  0  0  0  0  0  0  0  0  0  0  0
 -129.4387 -156.1561  118.2870 N   0  0  0  0  0  0  0  0  0  0  0  0
 -129.2314 -163.5155  122.3938 O   0  0  0  0  0  0  0  0  0  0  0  0
 -124.5608 -164.4645  116.7850 O   0  0  0  0  0  0  0  0  0  0  0  0
 -123.9016 -163.9794  117.9638 S   0  0  1  0  0  0  0  0  0  0  0  0
  8  9  1  0
  8 10  1  0
  9 10  1  0
  8 11  1  1
  1 13  1  1
  1 14  1  0
  2 15  1  0
  3 16  1  0
 16 17  1  0
  4 17  2  0
  6 18  1  0
  5 18  1  0
 16 18  2  0
  6 19  2  0
  3 20  2  0
 11 20  1  0
 12 22  1  0
 11 22  2  0
  1 23  1  0
  2 23  1  0
 12 23  1  0
 12 24  2  0
  3 24  1  0
  5 25  2  0
  4 25  1  0
 19 26  1  0
  5 26  1  0
 14 27  1  0
 15 27  1  0
 28 29  2  0
 29  7  1  1
  8 29  1  0
 21 29  2  0
M  END
