
     RDKit          3D

 42 45  0  0  0  0  0  0  0  0999 V2000
   41.2074    5.2119   14.2409 C   0  0  0  0  0  0  0  0  0  0  0  0
   42.3399    5.2255   13.1996 C   0  0  0  0  0  0  0  0  0  0  0  0
   41.8741    4.5407   11.9020 C   0  0  0  0  0  0  0  0  0  0  0  0
   43.5319    4.4319   13.7676 C   0  0  0  0  0  0  0  0  0  0  0  0
   42.8490    6.5922   12.9445 N   0  0  0  0  0  0  0  0  0  0  0  0
   41.8083    7.6256   12.7602 C   0  0  0  0  0  0  0  0  0  0  0  0
   41.5089    7.8024   11.2611 C   0  0  0  0  0  0  0  0  0  0  0  0
   42.3844    7.6864   10.4053 O   0  0  0  0  0  0  0  0  0  0  0  0
   40.1744    8.0630   11.0039 N   0  0  0  0  0  0  0  0  0  0  0  0
   39.6117    9.0622   10.1911 C   0  0  0  0  0  0  0  0  0  0  0  0
   38.8787    8.7877    9.0402 C   0  0  0  0  0  0  0  0  0  0  0  0
   38.3637    9.8170    8.2393 C   0  0  0  0  0  0  0  0  0  0  0  0
   37.6544    9.4259    6.9910 N   0  0  0  0  0  4  0  0  0  0  0  0
   36.1690    9.6534    7.1098 C   0  0  0  0  0  0  0  0  0  0  0  0
   38.0003    8.0153    6.5768 C   0  0  0  0  0  0  0  0  0  0  0  0
   38.5327   11.1698    8.6133 C   0  0  0  0  0  0  0  0  0  0  0  0
   38.0140   12.3390    7.7973 C   0  0  0  0  0  0  0  0  0  0  0  0
   37.6272   13.5476    8.6736 C   0  0  2  0  0  0  0  0  0  0  0  0
   37.0282   14.7075    7.8228 C   0  0  0  0  0  0  0  0  0  0  0  0
   37.8435   16.0328    7.8048 C   0  0  1  0  0  0  0  0  0  0  0  0
   36.9993   17.2151    7.2008 C   0  0  2  0  0  0  0  0  0  0  0  0
   37.8065   17.9272    6.0855 N   0  0  0  0  0  4  0  0  0  0  0  0
   39.2396   18.2259    6.4753 C   0  0  0  0  0  0  0  0  0  0  0  0
   37.7700   17.2608    4.7315 C   0  0  0  0  0  0  0  0  0  0  0  0
   36.3297   18.1488    8.2201 C   0  0  0  0  0  0  0  0  0  0  0  0
   35.6766   19.2348    7.6473 O   0  0  0  0  0  0  0  0  0  0  0  0
   36.3562   17.9472    9.5562 C   0  0  0  0  0  0  0  0  0  0  0  0
   35.7797   18.8848   10.5376 C   0  0  0  0  0  0  0  0  0  0  0  0
   36.3671   19.8977   10.8829 O   0  0  0  0  0  0  0  0  0  0  0  0
   34.5365   18.5675   11.0048 N   0  0  0  0  0  0  0  0  0  0  0  0
   37.0873   16.7534   10.0426 C   0  0  0  0  0  0  0  0  0  0  0  0
   36.5981   16.0429   10.9152 O   0  0  0  0  0  0  0  0  0  0  0  0
   38.3321   16.3782    9.2224 C   0  0  2  0  0  0  0  0  0  0  0  0
   39.2289   17.4808    9.1338 O   0  0  0  0  0  0  0  0  0  0  0  0
   39.0757   15.2223    9.8428 C   0  0  0  0  0  0  0  0  0  0  0  0
   40.1114   15.6121   10.6779 O   0  0  0  0  0  0  0  0  0  0  0  0
   38.7692   13.9399    9.5659 C   0  0  0  0  0  0  0  0  0  0  0  0
   39.5497   12.8424   10.2029 C   0  0  0  0  0  0  0  0  0  0  0  0
   40.4033   13.0805   11.0527 O   0  0  0  0  0  0  0  0  0  0  0  0
   39.2839   11.4428    9.7844 C   0  0  0  0  0  0  0  0  0  0  0  0
   39.8207   10.3943   10.5549 C   0  0  0  0  0  0  0  0  0  0  0  0
   40.5762   10.6042   11.6839 O   0  0  0  0  0  0  0  0  0  0  0  0
  1  2  1  0
  2  3  1  0
  2  4  1  0
  2  5  1  0
  5  6  1  0
  6  7  1  0
  7  8  2  0
  7  9  1  0
  9 10  1  0
 10 11  4  0
 11 12  4  0
 12 13  1  0
 13 14  1  0
 13 15  1  0
 12 16  4  0
 16 17  1  0
 18 17  1  6
 18 19  1  0
 20 19  1  1
 20 21  1  0
 21 22  1  1
 22 23  1  0
 22 24  1  0
 21 25  1  0
 25 26  1  0
 25 27  2  0
 27 28  1  0
 28 29  2  0
 28 30  1  0
 27 31  1  0
 31 32  2  0
 20 33  1  0
 31 33  1  0
 33 34  1  6
 33 35  1  0
 35 36  1  0
 18 37  1  0
 35 37  2  0
 37 38  1  0
 38 39  2  0
 16 40  4  0
 38 40  1  0
 10 41  4  0
 40 41  4  0
 41 42  1  0
M  CHG  2  13   1  22   1
M  END
