
     RDKit          3D

 10 10  0  0  0  0  0  0  0  0999 V2000
   -8.5258   30.4845  -11.7122 C   0  0  0  0  0  0  0  0  0  0  0  0
   -8.8330   31.1106  -12.9251 C   0  0  0  0  0  0  0  0  0  0  0  0
   -8.4514   32.4348  -13.1483 C   0  0  0  0  0  0  0  0  0  0  0  0
   -7.7634   33.1353  -12.1623 C   0  0  0  0  0  0  0  0  0  0  0  0
   -7.4602   32.5077  -10.9573 C   0  0  0  0  0  0  0  0  0  0  0  0
   -7.8351   31.1882  -10.7227 C   0  0  0  0  0  0  0  0  0  0  0  0
   -7.3885   34.4331  -12.3789 O   0  0  0  0  0  0  0  0  0  0  0  0
   -6.7972   33.1870  -10.0107 F   0  0  0  0  0  0  0  0  0  0  0  0
   -8.7453   33.0372  -14.3114 F   0  0  0  0  0  0  0  0  0  0  0  0
   -9.6851   30.2268  -14.1329 Cl  0  0  0  0  0  0  0  0  0  0  0  0
  1  2  4  0
  2  3  4  0
  3  4  4  0
  4  5  4  0
  1  6  4  0
  5  6  4  0
  4  7  1  0
  5  8  1  0
  3  9  1  0
  2 10  1  0
M  END
