8EYE_X4I_A_1106
     RDKit          3D

 49 51  0  0  0  0  0  0  0  0999 V2000
   11.9317   11.8633   15.5670 C   0  0  0  0  0  0  0  0  0  0  0  0
   11.8357    9.4088   11.8129 N   0  0  0  0  0  0  0  0  0  0  0  0
   10.6646   10.2714   11.6226 C   0  0  0  0  0  0  0  0  0  0  0  0
    9.7839   10.1017   15.7090 C   0  0  0  0  0  0  0  0  0  0  0  0
   10.5634   10.4949   17.9752 C   0  0  0  0  0  0  0  0  0  0  0  0
   11.3553   11.5363   17.5360 C   0  0  0  0  0  0  0  0  0  0  0  0
   13.0562   12.7163   19.9064 C   0  0  0  0  0  0  0  0  0  0  0  0
   13.2933   12.4312   18.5842 C   0  0  0  0  0  0  0  0  0  0  0  0
   12.4473   11.5040   17.9808 C   0  0  0  0  0  0  0  0  0  0  0  0
   12.5048   11.0823   16.5284 C   0  0  0  0  0  0  0  0  0  0  0  0
   13.2748    9.9522   16.2045 C   0  0  0  0  0  0  0  0  0  0  0  0
   13.4015    9.5768   14.8576 C   0  0  0  0  0  0  0  0  0  0  0  0
   12.8078   10.3653   13.8719 C   0  0  0  0  0  0  0  0  0  0  0  0
   12.0687   11.4826   14.1899 C   0  0  0  0  0  0  0  0  0  0  0  0
   13.0255    9.9728   12.4266 C   0  0  2  0  0  0  0  0  0  0  0  0
    9.7731   10.5660   12.8892 C   0  0  0  0  0  0  0  0  0  0  0  0
   10.5758   11.1426   15.2676 C   0  0  0  0  0  0  0  0  0  0  0  0
    9.7787    9.8011   17.0534 C   0  0  0  0  0  0  0  0  0  0  0  0
   11.3879   11.8600   16.1906 C   0  0  0  0  0  0  0  0  0  0  0  0
   13.6991   11.0067   11.5713 C   0  0  0  0  0  0  0  0  0  0  0  0
   11.3735   10.9254   18.6834 C   0  0  0  0  0  0  0  0  0  0  0  0
   11.1614   11.2304   20.0131 C   0  0  0  0  0  0  0  0  0  0  0  0
   12.0041   12.1385   20.6136 C   0  0  0  0  0  0  0  0  0  0  0  0
   13.8706   13.5923   20.5427 F   0  0  0  0  0  0  0  0  0  0  0  0
    9.0263    8.7803   17.4850 F   0  0  0  0  0  0  0  0  0  0  0  0
   12.1039   12.2067   18.4597 F   0  0  0  0  0  0  0  0  0  0  0  0
   10.1220   10.6888   20.7567 F   0  0  0  0  0  0  0  0  0  0  0  0
   11.7758   12.4453   21.9439 F   0  0  0  0  0  0  0  0  0  0  0  0
   10.5775   11.4553   13.8210 N   0  0  0  0  0  0  0  0  0  0  0  0
   12.7985   12.0106   11.0493 N   0  0  0  0  0  0  0  0  0  0  0  0
   10.4253   10.7533   10.5901 O   0  0  0  0  0  0  0  0  0  0  0  0
   12.9884   12.3708    9.7108 O   0  0  0  0  0  0  0  0  0  0  0  0
   14.8850   11.0159   11.3819 O   0  0  0  0  0  0  0  0  0  0  0  0
   11.4082   12.7141   15.8261 H   0  0  0  0  0  0  0  0  0  0  0  0
   11.8158    8.4660   11.5303 H   0  0  0  0  0  0  0  0  0  0  0  0
    9.2078    9.5601   15.0458 H   0  0  0  0  0  0  0  0  0  0  0  0
   10.5518   10.2325   18.9731 H   0  0  0  0  0  0  0  0  0  0  0  0
   14.0613   12.8823   18.0629 H   0  0  0  0  0  0  0  0  0  0  0  0
   13.7405    9.4060   16.9460 H   0  0  0  0  0  0  0  0  0  0  0  0
   13.9277    8.7273   14.5998 H   0  0  0  0  0  0  0  0  0  0  0  0
   11.6186   12.0397   13.4469 H   0  0  0  0  0  0  0  0  0  0  0  0
   13.7485    9.1858   12.4789 H   0  0  0  0  0  0  0  0  0  0  0  0
    9.5264    9.6492   13.3827 H   0  0  0  0  0  0  0  0  0  0  0  0
    8.8620   11.0486   12.6031 H   0  0  0  0  0  0  0  0  0  0  0  0
   12.0003   12.6208   15.8570 H   0  0  0  0  0  0  0  0  0  0  0  0
   10.7403   10.2685   18.2012 H   0  0  0  0  0  0  0  0  0  0  0  0
   11.0877   12.2213   13.4713 H   0  0  0  0  0  0  0  0  0  0  0  0
   12.0931   12.4167   11.6033 H   0  0  0  0  0  0  0  0  0  0  0  0
   13.7271   11.8625    9.3409 H   0  0  0  0  0  0  0  0  0  0  0  0
  2  3  1  0
  5  6  4  0
  7  8  4  0
  8  9  4  0
  1 10  4  0
  9 10  1  0
 10 11  4  0
 11 12  4  0
 12 13  4  0
 13 14  4  0
  1 14  4  0
 15  2  1  0
 13 15  1  0
  3 16  1  0
  4 17  4  0
  4 18  4  0
  5 18  4  0
 17 19  4  0
  6 19  4  0
 15 20  1  0
  9 21  4  0
 21 22  4  0
  7 23  4  0
 22 23  4  0
  7 24  1  0
 18 25  1  0
  6 26  1  0
 22 27  1  0
 23 28  1  0
 16 29  1  0
 17 29  1  0
 20 30  1  0
  3 31  2  0
 30 32  1  0
 20 33  2  0
  1 34  1  0
  2 35  1  0
  4 36  1  0
  5 37  1  0
  8 38  1  0
 11 39  1  0
 12 40  1  0
 14 41  1  0
 15 42  1  1
 16 43  1  0
 16 44  1  0
 19 45  1  0
 21 46  1  0
 29 47  1  0
 30 48  1  0
 32 49  1  0
M  END
