8EYE_X4I_A_1106
     RDKit          3D

 49 51  0  0  0  0  0  0  0  0999 V2000
    1.4841   -0.4521    0.9535 C   0  0  0  0  0  0  0  0  0  0  0  0
   -0.7528   -2.2915   -2.6210 N   0  0  0  0  0  0  0  0  0  0  0  0
   -1.3979   -3.5708   -2.5887 C   0  0  0  0  0  0  0  0  0  0  0  0
   -2.3135   -4.2866    1.4753 C   0  0  0  0  0  0  0  0  0  0  0  0
   -1.6097   -2.2878    2.6485 C   0  0  0  0  0  0  0  0  0  0  0  0
   -1.8473   -1.5270    1.5022 C   0  0  0  0  0  0  0  0  0  0  0  0
    0.5001    3.9163    2.8884 C   0  0  0  0  0  0  0  0  0  0  0  0
    0.3625    2.9419    1.8930 C   0  0  0  0  0  0  0  0  0  0  0  0
    1.3246    1.9240    1.7522 C   0  0  0  0  0  0  0  0  0  0  0  0
    1.1863    0.8957    0.6884 C   0  0  0  0  0  0  0  0  0  0  0  0
    0.7425    1.2535   -0.5961 C   0  0  0  0  0  0  0  0  0  0  0  0
    0.5968    0.2854   -1.5924 C   0  0  0  0  0  0  0  0  0  0  0  0
    0.8986   -1.0616   -1.3275 C   0  0  0  0  0  0  0  0  0  0  0  0
    1.3359   -1.4209   -0.0425 C   0  0  0  0  0  0  0  0  0  0  0  0
    0.6833   -2.1259   -2.3800 C   0  0  2  0  0  0  0  0  0  0  0  0
   -2.8504   -3.6751   -2.2314 C   0  0  0  0  0  0  0  0  0  0  0  0
   -2.5328   -3.5371    0.3088 C   0  0  0  0  0  0  0  0  0  0  0  0
   -1.8471   -3.6659    2.6369 C   0  0  0  0  0  0  0  0  0  0  0  0
   -2.3026   -2.1462    0.3361 C   0  0  0  0  0  0  0  0  0  0  0  0
    1.4292   -1.7946   -3.6493 C   0  0  0  0  0  0  0  0  0  0  0  0
    2.4245    1.9023    2.6307 C   0  0  0  0  0  0  0  0  0  0  0  0
    2.5611    2.8811    3.6222 C   0  0  0  0  0  0  0  0  0  0  0  0
    1.6003    3.8881    3.7510 C   0  0  0  0  0  0  0  0  0  0  0  0
   -0.4360    4.8892    3.0140 F   0  0  0  0  0  0  0  0  0  0  0  0
   -1.6299   -4.4040    3.7556 F   0  0  0  0  0  0  0  0  0  0  0  0
   -1.6485   -0.1855    1.5247 F   0  0  0  0  0  0  0  0  0  0  0  0
    3.6337    2.8575    4.4527 F   0  0  0  0  0  0  0  0  0  0  0  0
    1.7358    4.8372    4.7114 F   0  0  0  0  0  0  0  0  0  0  0  0
   -2.9947   -4.2087   -0.8769 N   0  0  0  0  0  0  0  0  0  0  0  0
    0.7799   -1.1889   -4.7771 N   0  0  0  0  0  0  0  0  0  0  0  0
   -0.7397   -4.6189   -2.8241 O   0  0  0  0  0  0  0  0  0  0  0  0
    1.4784   -0.9177   -5.9045 O   0  0  0  0  0  0  0  0  0  0  0  0
    2.6669   -2.0221   -3.6978 O   0  0  0  0  0  0  0  0  0  0  0  0
    1.7994   -0.7626    1.9415 H   0  0  0  0  0  0  0  0  0  0  0  0
   -1.3478   -1.4385   -2.7438 H   0  0  0  0  0  0  0  0  0  0  0  0
   -2.4913   -5.3571    1.4801 H   0  0  0  0  0  0  0  0  0  0  0  0
   -1.2498   -1.8082    3.5489 H   0  0  0  0  0  0  0  0  0  0  0  0
   -0.5039    2.9738    1.2436 H   0  0  0  0  0  0  0  0  0  0  0  0
    0.5172    2.2854   -0.8344 H   0  0  0  0  0  0  0  0  0  0  0  0
    0.2429    0.5873   -2.5699 H   0  0  0  0  0  0  0  0  0  0  0  0
    1.5486   -2.4551    0.1983 H   0  0  0  0  0  0  0  0  0  0  0  0
    1.1024   -3.0879   -2.0071 H   0  0  0  0  0  0  0  0  0  0  0  0
   -3.3459   -4.3621   -2.9511 H   0  0  0  0  0  0  0  0  0  0  0  0
   -3.3618   -2.6933   -2.3155 H   0  0  0  0  0  0  0  0  0  0  0  0
   -2.4816   -1.5317   -0.5313 H   0  0  0  0  0  0  0  0  0  0  0  0
    3.1887    1.1408    2.5366 H   0  0  0  0  0  0  0  0  0  0  0  0
   -3.3595   -5.1846   -0.7870 H   0  0  0  0  0  0  0  0  0  0  0  0
   -0.2412   -0.9660   -4.7566 H   0  0  0  0  0  0  0  0  0  0  0  0
    1.8053    0.0096   -5.7816 H   0  0  0  0  0  0  0  0  0  0  0  0
  2  3  1  0
  5  6  1  0
  7  8  2  0
  8  9  1  0
  1 10  2  0
  9 10  1  0
 10 11  1  0
 11 12  2  0
 12 13  1  0
 13 14  2  0
  1 14  1  0
 15  2  1  0
 13 15  1  0
  3 16  1  0
  4 17  2  0
  4 18  1  0
  5 18  2  0
 17 19  1  0
  6 19  2  0
 15 20  1  0
  9 21  2  0
 21 22  1  0
  7 23  1  0
 22 23  2  0
  7 24  1  0
 18 25  1  0
  6 26  1  0
 22 27  1  0
 23 28  1  0
 16 29  1  0
 17 29  1  0
 20 30  1  0
  3 31  2  0
 30 32  1  0
 20 33  2  0
  1 34  1  0
  2 35  1  0
  4 36  1  0
  5 37  1  0
  8 38  1  0
 11 39  1  0
 12 40  1  0
 14 41  1  0
 15 42  1  1
 16 43  1  0
 16 44  1  0
 19 45  1  0
 21 46  1  0
 29 47  1  0
 30 48  1  0
 32 49  1  0
M  END
