
     RDKit          3D

 34 36  0  0  0  0  0  0  0  0999 V2000
   27.1226    5.7857    6.3992 N   0  0  0  0  0  0  0  0  0  0  0  0
   28.2395    5.4449    6.9503 C   0  0  0  0  0  0  0  0  0  0  0  0
   29.3666    5.3240    6.2076 N   0  0  0  0  0  0  0  0  0  0  0  0
   28.3609    5.1885    8.2742 N   0  0  0  0  0  0  0  0  0  0  0  0
   27.3596    5.5015    9.1455 C   0  0  0  0  0  0  0  0  0  0  0  0
   27.6224    5.7245   10.3261 O   0  0  0  0  0  0  0  0  0  0  0  0
   26.0069    5.6778    8.5283 C   0  0  0  0  0  0  0  0  0  0  0  0
   24.8332    5.7370    9.2950 N   0  0  0  0  0  0  0  0  0  0  0  0
   23.6058    6.2832    8.6611 C   0  0  2  0  0  0  0  0  0  0  0  0
   23.5316    5.8624    7.1781 C   0  0  0  0  0  0  0  0  0  0  0  0
   24.7997    6.1505    6.5305 N   0  0  0  0  0  0  0  0  0  0  0  0
   25.9992    5.8731    7.1826 C   0  0  0  0  0  0  0  0  0  0  0  0
   23.4795    7.8249    8.7983 C   0  0  0  0  0  0  0  0  0  0  0  0
   24.7841    8.4507    9.0288 N   0  0  0  0  0  0  0  0  0  0  0  0
   25.6306   11.9963   11.1732 C   0  0  0  0  0  0  0  0  0  0  0  0
   24.6284   11.9979   10.2026 C   0  0  0  0  0  0  0  0  0  0  0  0
   24.3043   10.8204    9.5143 C   0  0  0  0  0  0  0  0  0  0  0  0
   24.9499    9.6107    9.7795 C   0  0  0  0  0  0  0  0  0  0  0  0
   25.9321    9.6143   10.7777 C   0  0  0  0  0  0  0  0  0  0  0  0
   26.2686   10.7859   11.4674 C   0  0  0  0  0  0  0  0  0  0  0  0
   26.1193   13.2311   11.8588 C   0  0  0  0  0  0  0  0  0  0  0  0
   27.0020   13.1518   12.7091 O   0  0  0  0  0  0  0  0  0  0  0  0
   25.5843   14.4414   11.4748 N   0  0  0  0  0  0  0  0  0  0  0  0
   25.6555   15.6103   12.3466 C   0  0  1  0  0  0  0  0  0  0  0  0
   26.7359   16.5995   11.8683 C   0  0  0  0  0  0  0  0  0  0  0  0
   26.8264   16.8048   10.3550 C   0  0  0  0  0  0  0  0  0  0  0  0
   28.2334   16.7524    9.8273 C   0  0  0  0  0  0  0  0  0  0  0  0
   28.5761   16.1332    8.8311 O   0  0  0  0  0  0  0  0  0  0  0  0
   29.1011   17.4357   10.5903 O   0  0  0  0  0  0  0  0  0  0  0  0
   24.2762   16.2598   12.4668 C   0  0  0  0  0  0  0  0  0  0  0  0
   23.6755   16.5186   13.4985 O   0  0  0  0  0  0  0  0  0  0  0  0
   23.7263   16.5657   11.2732 O   0  0  0  0  0  0  0  0  0  0  0  0
   24.7279    5.1949   10.5672 C   0  0  0  0  0  0  0  0  0  0  0  0
   24.9558    4.0395   10.9032 O   0  0  0  0  0  0  0  0  0  0  0  0
  1  2  4  0
  2  3  1  0
  2  4  4  0
  4  5  4  0
  5  6  2  0
  5  7  4  0
  7  8  1  0
  8  9  1  0
  9 10  1  0
 10 11  1  0
  1 12  4  0
  7 12  4  0
 11 12  1  0
  9 13  1  6
 13 14  1  0
 15 16  4  0
 16 17  4  0
 14 18  1  0
 17 18  4  0
 18 19  4  0
 15 20  4  0
 19 20  4  0
 15 21  1  0
 21 22  2  0
 21 23  1  0
 23 24  1  0
 24 25  1  6
 25 26  1  0
 26 27  1  0
 27 28  2  0
 27 29  1  0
 24 30  1  0
 30 31  2  0
 30 32  1  0
  8 33  1  0
 33 34  2  0
M  END
