6TW7_NZB_AAA_1003
     RDKit          3D

 52 55  0  0  0  0  0  0  0  0999 V2000
   -2.6517   45.8566   56.2455 C   0  0  0  0  0  0  0  0  0  0  0  0
   -2.5407   45.6201   54.7685 C   0  0  2  0  0  0  0  0  0  0  0  0
   -0.7943   46.2887   53.2179 C   0  0  2  0  0  0  0  0  0  0  0  0
   -3.8058   45.8376   56.9506 N   0  0  0  0  0  0  0  0  0  0  0  0
   -0.0768   46.4310   59.3977 C   0  0  0  0  0  0  0  0  0  0  0  0
   -1.4776   46.3522   59.5185 C   0  0  0  0  0  0  0  0  0  0  0  0
   -2.2184   46.1602   58.3568 C   0  0  0  0  0  0  0  0  0  0  0  0
    0.5521   46.3112   58.1286 C   0  0  0  0  0  0  0  0  0  0  0  0
    2.4692   44.2438   54.9334 C   0  0  1  0  0  0  0  0  0  0  0  0
    3.9675   44.5105   54.7997 C   0  0  1  0  0  0  0  0  0  0  0  0
    4.2982   45.9379   55.1500 C   0  0  0  0  0  0  0  0  0  0  0  0
    2.6960   45.7328   56.9427 C   0  0  0  0  0  0  0  0  0  0  0  0
    4.1006   45.8037   56.8634 C   0  0  0  0  0  0  0  0  0  0  0  0
    4.2578   46.3741   56.4820 C   0  0  0  0  0  0  0  0  0  0  0  0
    2.0300   46.3552   58.0215 C   0  0  0  0  0  0  0  0  0  0  0  0
   -1.6202   46.0599   57.1324 C   0  0  0  0  0  0  0  0  0  0  0  0
   -0.2406   46.1346   56.9702 C   0  0  0  0  0  0  0  0  0  0  0  0
    4.8310   46.4708   57.8498 C   0  0  0  0  0  0  0  0  0  0  0  0
    4.1720   47.0713   58.9231 C   0  0  0  0  0  0  0  0  0  0  0  0
    2.7798   47.0132   59.0114 C   0  0  0  0  0  0  0  0  0  0  0  0
   -3.5527   46.0241   58.2424 N   0  0  0  0  0  0  0  0  0  0  0  0
    6.1830   46.5314   57.7669 F   0  0  0  0  0  0  0  0  0  0  0  0
   -1.8639   46.7588   54.1155 N   0  0  0  0  0  0  0  0  0  0  0  0
   -2.8358   47.5548   53.3503 C   0  0  2  0  0  0  0  0  0  0  0  0
    1.9360   45.0409   55.9870 O   0  0  0  0  0  0  0  0  0  0  0  0
    4.7112   46.8414   54.1584 C   0  0  0  0  0  0  0  0  0  0  0  0
    5.0425   48.1179   54.4894 N   0  0  0  0  0  0  0  0  0  0  0  0
    4.9933   48.5577   55.7746 C   0  0  0  0  0  0  0  0  0  0  0  0
    4.6012   47.6903   56.7962 C   0  0  0  0  0  0  0  0  0  0  0  0
   -3.5767   45.5058   54.3783 H   0  0  0  0  0  0  0  0  0  0  0  0
   -2.0056   44.6638   54.5703 H   0  0  0  0  0  0  0  0  0  0  0  0
   -1.2260   45.7350   52.3572 H   0  0  0  0  0  0  0  0  0  0  0  0
   -0.1294   45.5796   53.7569 H   0  0  0  0  0  0  0  0  0  0  0  0
   -0.1848   47.1369   52.8337 H   0  0  0  0  0  0  0  0  0  0  0  0
   -4.7622   45.6870   56.5600 H   0  0  0  0  0  0  0  0  0  0  0  0
    0.5196   46.5612   60.2921 H   0  0  0  0  0  0  0  0  0  0  0  0
   -1.9599   46.4262   60.4845 H   0  0  0  0  0  0  0  0  0  0  0  0
    1.9579   44.4871   53.9762 H   0  0  0  0  0  0  0  0  0  0  0  0
    2.3143   43.1683   55.1668 H   0  0  0  0  0  0  0  0  0  0  0  0
    4.5262   43.8156   55.4637 H   0  0  0  0  0  0  0  0  0  0  0  0
    4.2850   44.2936   53.7565 H   0  0  0  0  0  0  0  0  0  0  0  0
    4.6365   45.3402   56.0466 H   0  0  0  0  0  0  0  0  0  0  0  0
    3.9629   45.6965   57.2736 H   0  0  0  0  0  0  0  0  0  0  0  0
    0.2027   46.0537   55.9854 H   0  0  0  0  0  0  0  0  0  0  0  0
    4.7397   47.5863   59.6875 H   0  0  0  0  0  0  0  0  0  0  0  0
    2.2848   47.4953   59.8455 H   0  0  0  0  0  0  0  0  0  0  0  0
   -3.8488   47.5036   53.8088 H   0  0  0  0  0  0  0  0  0  0  0  0
   -2.8931   47.1907   52.3017 H   0  0  0  0  0  0  0  0  0  0  0  0
   -2.5084   48.6158   53.3072 H   0  0  0  0  0  0  0  0  0  0  0  0
    4.7745   46.5299   53.1259 H   0  0  0  0  0  0  0  0  0  0  0  0
    5.2634   49.5797   56.0041 H   0  0  0  0  0  0  0  0  0  0  0  0
    4.5677   48.0341   57.8219 H   0  0  0  0  0  0  0  0  0  0  0  0
  1  2  1  0
  1  4  1  0
  5  6  2  0
  6  7  1  0
  5  8  1  0
  9 10  1  0
 10 11  1  0
 12 13  2  0
 11 14  2  0
  8 15  1  0
 12 15  1  0
  7 16  1  0
  1 16  2  0
 16 17  1  0
  8 17  2  0
 13 18  1  0
 18 19  2  0
 19 20  1  0
 15 20  2  0
  7 21  2  0
  4 21  1  0
 18 22  1  0
  3 23  1  0
  2 23  1  0
 23 24  1  0
 12 25  1  0
  9 25  1  0
 11 26  1  0
 26 27  2  0
 27 28  1  0
 14 29  1  0
 28 29  2  0
  2 30  1  6
  2 31  1  0
  3 32  1  6
  3 33  1  0
  3 34  1  0
  4 35  1  0
  5 36  1  0
  6 37  1  0
  9 38  1  6
  9 39  1  0
 10 40  1  1
 10 41  1  0
 13 42  1  0
 14 43  1  0
 17 44  1  0
 19 45  1  0
 20 46  1  0
 24 47  1  1
 24 48  1  0
 24 49  1  0
 26 50  1  0
 28 51  1  0
 29 52  1  0
M  END
