7MRH_ZMJ_B_201
     RDKit          3D

 42 44  0  0  0  0  0  0  0  0999 V2000
   -8.6577    2.0748  -33.3057 C   0  0  0  0  0  0  0  0  0  0  0  0
   -7.1793    3.4328  -34.6659 C   0  0  0  0  0  0  0  0  0  0  0  0
   -6.1698    2.4771  -34.5291 C   0  0  0  0  0  0  0  0  0  0  0  0
   -7.6368    1.1225  -33.1579 C   0  0  0  0  0  0  0  0  0  0  0  0
   -4.5231    1.6203  -31.1933 C   0  0  1  0  0  0  0  0  0  0  0  0
   -3.2581    2.3021  -30.6882 C   0  0  2  0  0  0  0  0  0  0  0  0
   -9.9967    1.8621  -31.2358 C   0  0  0  0  0  0  0  0  0  0  0  0
  -12.3586    1.5826  -31.2254 C   0  0  0  0  0  0  0  0  0  0  0  0
  -12.3838    1.5693  -32.6344 C   0  0  0  0  0  0  0  0  0  0  0  0
  -13.5942    1.4138  -33.3396 C   0  0  0  0  0  0  0  0  0  0  0  0
  -13.6008    1.3774  -34.7342 C   0  0  0  0  0  0  0  0  0  0  0  0
  -12.4063    1.4882  -35.4428 C   0  0  0  0  0  0  0  0  0  0  0  0
  -11.1977    1.6468  -34.7627 C   0  0  0  0  0  0  0  0  0  0  0  0
  -11.1692    1.7057  -33.3524 C   0  0  0  0  0  0  0  0  0  0  0  0
   -9.9632    1.8732  -32.6360 C   0  0  0  0  0  0  0  0  0  0  0  0
  -11.1570    1.7294  -29.0859 C   0  0  2  0  0  0  0  0  0  0  0  0
   -8.4184    3.2357  -34.0551 C   0  0  0  0  0  0  0  0  0  0  0  0
   -6.3866    1.3102  -33.7788 C   0  0  0  0  0  0  0  0  0  0  0  0
  -11.1710    1.7119  -30.5550 N   0  0  0  0  0  0  0  0  0  0  0  0
   -5.3211    0.3498  -33.6580 N   0  0  0  0  0  0  0  0  0  0  0  0
  -13.4378    1.4710  -30.5770 O   0  0  0  0  0  0  0  0  0  0  0  0
   -2.7645    0.5791  -32.9790 O   0  0  0  0  0  0  0  0  0  0  0  0
   -4.1489   -0.9831  -31.7104 O   0  0  0  0  0  0  0  0  0  0  0  0
   -4.1311    0.3553  -32.3939 S   0  0  1  0  0  6  0  0  0  0  0  0
   -6.9994    4.3292  -35.2451 H   0  0  0  0  0  0  0  0  0  0  0  0
   -5.2151    2.6459  -35.0112 H   0  0  0  0  0  0  0  0  0  0  0  0
   -7.8329    0.2451  -32.5599 H   0  0  0  0  0  0  0  0  0  0  0  0
   -5.0577    1.1529  -30.3396 H   0  0  0  0  0  0  0  0  0  0  0  0
   -5.1902    2.3787  -31.6519 H   0  0  0  0  0  0  0  0  0  0  0  0
   -3.0244    1.9635  -29.6566 H   0  0  0  0  0  0  0  0  0  0  0  0
   -3.3859    3.4053  -30.6937 H   0  0  0  0  0  0  0  0  0  0  0  0
   -2.4057    2.0399  -31.3496 H   0  0  0  0  0  0  0  0  0  0  0  0
   -9.0673    1.9909  -30.6912 H   0  0  0  0  0  0  0  0  0  0  0  0
  -14.5371    1.3137  -32.8160 H   0  0  0  0  0  0  0  0  0  0  0  0
  -14.5350    1.2545  -35.2671 H   0  0  0  0  0  0  0  0  0  0  0  0
  -12.4158    1.4472  -36.5245 H   0  0  0  0  0  0  0  0  0  0  0  0
  -10.2916    1.7100  -35.3497 H   0  0  0  0  0  0  0  0  0  0  0  0
  -11.6430    0.8123  -28.6892 H   0  0  0  0  0  0  0  0  0  0  0  0
  -11.7047    2.6227  -28.7176 H   0  0  0  0  0  0  0  0  0  0  0  0
  -10.1219    1.7607  -28.6817 H   0  0  0  0  0  0  0  0  0  0  0  0
   -9.1908    3.9876  -34.1624 H   0  0  0  0  0  0  0  0  0  0  0  0
   -5.2863   -0.4504  -34.3288 H   0  0  0  0  0  0  0  0  0  0  0  0
  2  3  2  0
  1  4  1  0
  5  6  1  0
  8  9  1  0
  9 10  1  0
 10 11  2  0
 11 12  1  0
 12 13  2  0
  9 14  2  0
 13 14  1  0
  7 15  2  0
  1 15  1  0
 14 15  1  0
  1 17  2  0
  2 17  1  0
  4 18  2  0
  3 18  1  0
 16 19  1  0
  7 19  1  0
  8 19  1  0
 18 20  1  0
  8 21  2  0
 22 24  2  0
  5 24  1  0
 23 24  2  0
 24 20  1  6
  2 25  1  0
  3 26  1  0
  4 27  1  0
  5 28  1  1
  5 29  1  0
  6 30  1  1
  6 31  1  0
  6 32  1  0
  7 33  1  0
 10 34  1  0
 11 35  1  0
 12 36  1  0
 13 37  1  0
 16 38  1  1
 16 39  1  0
 16 40  1  0
 17 41  1  0
 20 42  1  0
M  END
