1M2Z_DEX_A_301
     RDKit          3D

 57 60  0  0  0  0  0  0  0  0999 V2000
    1.1249   -4.2393    1.2900 C   0  0  0  0  0  0  0  0  0  0  0  0
    0.9584   -5.3734    1.9742 C   0  0  0  0  0  0  0  0  0  0  0  0
   -0.3399   -5.6853    2.5664 C   0  0  0  0  0  0  0  0  0  0  0  0
   -1.3722   -4.6484    2.5942 C   0  0  0  0  0  0  0  0  0  0  0  0
   -1.1995   -3.4913    1.9295 C   0  0  0  0  0  0  0  0  0  0  0  0
   -2.2856   -2.4404    2.0573 C   0  0  0  0  0  0  0  0  0  0  0  0
   -1.7293   -1.0167    1.9782 C   0  0  0  0  0  0  0  0  0  0  0  0
   -0.8539   -0.8886    0.7292 C   0  0  2  0  0  0  0  0  0  0  0  0
    0.4030   -1.8241    0.8319 C   0  0  1  0  0  0  0  0  0  0  0  0
   -0.0553   -3.3391    0.8897 C   0  0  1  0  0  0  0  0  0  0  0  0
    1.5250   -1.4031   -0.2338 C   0  0  2  0  0  0  0  0  0  0  0  0
    1.0614   -0.4894   -1.4074 C   0  0  0  0  0  0  0  0  0  0  0  0
    0.0769    0.6748   -1.0307 C   0  0  1  0  0  0  0  0  0  0  0  0
   -0.3601    0.5360    0.4397 C   0  0  1  0  0  0  0  0  0  0  0  0
   -1.1852    1.7800    0.7271 C   0  0  0  0  0  0  0  0  0  0  0  0
   -0.4806    2.8765   -0.1218 C   0  0  2  0  0  0  0  0  0  0  0  0
    0.6248    2.1467   -0.9826 C   0  0  2  0  0  0  0  0  0  0  0  0
   -1.1278    0.5889   -2.0396 C   0  0  0  0  0  0  0  0  0  0  0  0
   -0.5920   -3.8398   -0.4729 C   0  0  0  0  0  0  0  0  0  0  0  0
    0.8027    2.8100   -2.3568 C   0  0  0  0  0  0  0  0  0  0  0  0
    2.1721    3.0030   -2.9662 C   0  0  0  0  0  0  0  0  0  0  0  0
    0.0686    4.0162    0.7498 C   0  0  0  0  0  0  0  0  0  0  0  0
    0.9855   -1.5782    2.0738 F   0  0  0  0  0  0  0  0  0  0  0  0
   -0.5427   -6.8036    3.1079 O   0  0  0  0  0  0  0  0  0  0  0  0
    2.1954   -2.5117   -0.7731 O   0  0  0  0  0  0  0  0  0  0  0  0
    1.8454    2.2017   -0.2655 O   0  0  0  0  0  0  0  0  0  0  0  0
   -0.1755    3.2167   -2.9692 O   0  0  0  0  0  0  0  0  0  0  0  0
    2.0879    3.6105   -4.2282 O   0  0  0  0  0  0  0  0  0  0  0  0
    2.1282   -4.0283    0.9588 H   0  0  0  0  0  0  0  0  0  0  0  0
    1.8018   -6.0299    2.1504 H   0  0  0  0  0  0  0  0  0  0  0  0
   -2.2485   -4.8082    3.2119 H   0  0  0  0  0  0  0  0  0  0  0  0
   -2.8250   -2.5409    3.0252 H   0  0  0  0  0  0  0  0  0  0  0  0
   -3.0282   -2.5963    1.2448 H   0  0  0  0  0  0  0  0  0  0  0  0
   -2.5866   -0.3127    1.9163 H   0  0  0  0  0  0  0  0  0  0  0  0
   -1.1569   -0.7722    2.8992 H   0  0  0  0  0  0  0  0  0  0  0  0
   -1.4912   -1.2146   -0.1071 H   0  0  0  0  0  0  0  0  0  0  0  0
    2.2763   -0.7928    0.3231 H   0  0  0  0  0  0  0  0  0  0  0  0
    1.9447   -0.0914   -1.9472 H   0  0  0  0  0  0  0  0  0  0  0  0
    0.5849   -1.1744   -2.1441 H   0  0  0  0  0  0  0  0  0  0  0  0
    0.5261    0.6743    1.1063 H   0  0  0  0  0  0  0  0  0  0  0  0
   -1.1846    2.0110    1.8159 H   0  0  0  0  0  0  0  0  0  0  0  0
   -2.2383    1.6384    0.4012 H   0  0  0  0  0  0  0  0  0  0  0  0
   -1.2547    3.3287   -0.7799 H   0  0  0  0  0  0  0  0  0  0  0  0
   -0.7594    0.7260   -3.0781 H   0  0  0  0  0  0  0  0  0  0  0  0
   -1.9103    1.3517   -1.8605 H   0  0  0  0  0  0  0  0  0  0  0  0
   -1.6253   -0.3996   -2.0437 H   0  0  0  0  0  0  0  0  0  0  0  0
   -1.5173   -3.3101   -0.7748 H   0  0  0  0  0  0  0  0  0  0  0  0
   -0.8467   -4.9201   -0.4111 H   0  0  0  0  0  0  0  0  0  0  0  0
    0.1525   -3.7223   -1.2837 H   0  0  0  0  0  0  0  0  0  0  0  0
    2.6924    2.0229   -3.0506 H   0  0  0  0  0  0  0  0  0  0  0  0
    2.7727    3.6595   -2.3026 H   0  0  0  0  0  0  0  0  0  0  0  0
    0.7545    3.6261    1.5318 H   0  0  0  0  0  0  0  0  0  0  0  0
    0.6148    4.7474    0.1168 H   0  0  0  0  0  0  0  0  0  0  0  0
   -0.7704    4.5441    1.2511 H   0  0  0  0  0  0  0  0  0  0  0  0
    3.0675   -2.1904   -1.1236 H   0  0  0  0  0  0  0  0  0  0  0  0
    2.5187    1.6328   -0.7142 H   0  0  0  0  0  0  0  0  0  0  0  0
    1.8051    2.9034   -4.8655 H   0  0  0  0  0  0  0  0  0  0  0  0
  1  2  2  0
  2  3  1  0
  3  4  1  0
  4  5  2  0
  5  6  1  0
  6  7  1  0
  8  7  1  0
  8  9  1  0
  1 10  1  0
  5 10  1  0
  9 10  1  0
  9 11  1  0
 11 12  1  0
 12 13  1  0
  8 14  1  0
 13 14  1  0
 14 15  1  0
 15 16  1  0
 13 17  1  0
 16 17  1  0
 13 18  1  6
 10 19  1  6
 17 20  1  0
 20 21  1  0
 16 22  1  0
  9 23  1  1
  3 24  2  0
 11 25  1  0
 17 26  1  1
 20 27  2  0
 21 28  1  0
  1 29  1  0
  2 30  1  0
  4 31  1  0
  6 32  1  0
  6 33  1  0
  7 34  1  0
  7 35  1  0
  8 36  1  6
 11 37  1  1
 12 38  1  0
 12 39  1  0
 14 40  1  1
 15 41  1  0
 15 42  1  0
 16 43  1  6
 18 44  1  0
 18 45  1  0
 18 46  1  0
 19 47  1  0
 19 48  1  0
 19 49  1  0
 21 50  1  0
 21 51  1  0
 22 52  1  0
 22 53  1  0
 22 54  1  0
 25 55  1  0
 26 56  1  0
 28 57  1  0
M  END
