1M2Z_DEX_A_301
     RDKit          3D

 57 60  0  0  0  0  0  0  0  0999 V2000
   31.6588    6.9279    9.4695 C   0  0  0  0  0  0  0  0  0  0  0  0
   31.8251    7.6919    8.3962 C   0  0  0  0  0  0  0  0  0  0  0  0
   32.9201    8.7148    8.4227 C   0  0  0  0  0  0  0  0  0  0  0  0
   33.6869    8.9023    9.6979 C   0  0  0  0  0  0  0  0  0  0  0  0
   33.4598    8.1024   10.7368 C   0  0  0  0  0  0  0  0  0  0  0  0
   34.2579    8.3616   11.9799 C   0  0  0  0  0  0  0  0  0  0  0  0
   33.3128    8.5185   13.1676 C   0  0  0  0  0  0  0  0  0  0  0  0
   32.2542    7.4228   13.2424 C   0  0  2  0  0  0  0  0  0  0  0  0
   31.5167    7.1671   11.9280 C   0  0  1  0  0  0  0  0  0  0  0  0
   32.4609    6.9784   10.7394 C   0  0  1  0  0  0  0  0  0  0  0  0
   30.3443    6.1911   12.0178 C   0  0  2  0  0  0  0  0  0  0  0  0
   29.4895    6.2933   13.2771 C   0  0  0  0  0  0  0  0  0  0  0  0
   30.3326    6.3835   14.5485 C   0  0  1  0  0  0  0  0  0  0  0  0
   31.2862    7.5709   14.4132 C   0  0  1  0  0  0  0  0  0  0  0  0
   31.7897    7.8650   15.8230 C   0  0  0  0  0  0  0  0  0  0  0  0
   30.6131    7.4778   16.7142 C   0  0  2  0  0  0  0  0  0  0  0  0
   29.5738    6.8425   15.7934 C   0  0  2  0  0  0  0  0  0  0  0  0
   31.0298    5.0503   14.8118 C   0  0  0  0  0  0  0  0  0  0  0  0
   33.2440    5.6685   10.7742 C   0  0  0  0  0  0  0  0  0  0  0  0
   28.7703    5.7431   16.4703 C   0  0  0  0  0  0  0  0  0  0  0  0
   27.4883    5.1823   15.8779 C   0  0  0  0  0  0  0  0  0  0  0  0
   30.1414    8.6678   17.5431 C   0  0  0  0  0  0  0  0  0  0  0  0
   30.8694    8.3411   11.6790 F   0  0  0  0  0  0  0  0  0  0  0  0
   33.1802    9.3791    7.4224 O   0  0  0  0  0  0  0  0  0  0  0  0
   30.8249    4.8555   11.9702 O   0  0  0  0  0  0  0  0  0  0  0  0
   28.6524    7.8657   15.4442 O   0  0  0  0  0  0  0  0  0  0  0  0
   29.1525    5.2574   17.5328 O   0  0  0  0  0  0  0  0  0  0  0  0
   26.3647    5.8390   16.4448 O   0  0  0  0  0  0  0  0  0  0  0  0
   30.9015    6.2280    9.4273 H   0  0  0  0  0  0  0  0  0  0  0  0
   31.2182    7.5845    7.5684 H   0  0  0  0  0  0  0  0  0  0  0  0
   34.3918    9.6527    9.7698 H   0  0  0  0  0  0  0  0  0  0  0  0
   34.8282    9.2586   11.8570 H   0  0  0  0  0  0  0  0  0  0  0  0
   34.9196    7.5396   12.1568 H   0  0  0  0  0  0  0  0  0  0  0  0
   32.8185    9.4639   13.0862 H   0  0  0  0  0  0  0  0  0  0  0  0
   33.9050    8.4496   14.0562 H   0  0  0  0  0  0  0  0  0  0  0  0
   32.8292    6.5413   13.4354 H   0  0  0  0  0  0  0  0  0  0  0  0
   29.7258    6.4572   11.1862 H   0  0  0  0  0  0  0  0  0  0  0  0
   28.8650    5.4267   13.3397 H   0  0  0  0  0  0  0  0  0  0  0  0
   28.9101    7.1901   13.2058 H   0  0  0  0  0  0  0  0  0  0  0  0
   30.8306    8.4816   14.0848 H   0  0  0  0  0  0  0  0  0  0  0  0
   32.0280    8.9021   15.9346 H   0  0  0  0  0  0  0  0  0  0  0  0
   32.6857    7.3318   16.0635 H   0  0  0  0  0  0  0  0  0  0  0  0
   30.8681    6.7580   17.4637 H   0  0  0  0  0  0  0  0  0  0  0  0
   31.5557    4.7430   13.9322 H   0  0  0  0  0  0  0  0  0  0  0  0
   30.3002    4.3107   15.0678 H   0  0  0  0  0  0  0  0  0  0  0  0
   31.7219    5.1632   15.6200 H   0  0  0  0  0  0  0  0  0  0  0  0
   33.8788    5.6096    9.9149 H   0  0  0  0  0  0  0  0  0  0  0  0
   32.5613    4.8446   10.7704 H   0  0  0  0  0  0  0  0  0  0  0  0
   33.8408    5.6332   11.6616 H   0  0  0  0  0  0  0  0  0  0  0  0
   27.4296    4.1346   16.0874 H   0  0  0  0  0  0  0  0  0  0  0  0
   27.4912    5.3407   14.8197 H   0  0  0  0  0  0  0  0  0  0  0  0
   29.8544    9.4656   16.8905 H   0  0  0  0  0  0  0  0  0  0  0  0
   30.9360    8.9962   18.1800 H   0  0  0  0  0  0  0  0  0  0  0  0
   29.3028    8.3763   18.1403 H   0  0  0  0  0  0  0  0  0  0  0  0
   31.3757    4.6820   12.7497 H   0  0  0  0  0  0  0  0  0  0  0  0
   29.1252    8.5912   15.0072 H   0  0  0  0  0  0  0  0  0  0  0  0
   26.3582    5.6981   17.4045 H   0  0  0  0  0  0  0  0  0  0  0  0
  1  2  2  0
  2  3  1  0
  3  4  1  0
  4  5  2  0
  5  6  1  0
  6  7  1  0
  8  7  1  0
  8  9  1  0
  1 10  1  0
  5 10  1  0
  9 10  1  0
  9 11  1  0
 11 12  1  0
 12 13  1  0
  8 14  1  0
 13 14  1  0
 14 15  1  0
 15 16  1  0
 13 17  1  0
 16 17  1  0
 13 18  1  1
 10 19  1  1
 17 20  1  0
 20 21  1  0
 16 22  1  0
  9 23  1  6
  3 24  2  0
 11 25  1  0
 17 26  1  6
 20 27  2  0
 21 28  1  0
  1 29  1  0
  2 30  1  0
  4 31  1  0
  6 32  1  0
  6 33  1  0
  7 34  1  0
  7 35  1  0
  8 36  1  1
 11 37  1  6
 12 38  1  0
 12 39  1  0
 14 40  1  6
 15 41  1  0
 15 42  1  0
 16 43  1  1
 18 44  1  0
 18 45  1  0
 18 46  1  0
 19 47  1  0
 19 48  1  0
 19 49  1  0
 21 50  1  0
 21 51  1  0
 22 52  1  0
 22 53  1  0
 22 54  1  0
 25 55  1  0
 26 56  1  0
 28 57  1  0
M  END
