7JGW_V9S_A_301
     RDKit          3D

 76 81  0  0  0  0  0  0  0  0999 V2000
   -1.6170    6.8694   22.1275 S   0  0  0  0  0  0  0  0  0  0  0  0
   -6.7182    4.6640   24.3151 C   0  0  0  0  0  0  0  0  0  0  0  0
   -8.3715    4.5382   26.0962 C   0  0  0  0  0  0  0  0  0  0  0  0
   -1.2450   -3.8993   25.1832 C   0  0  0  0  0  0  0  0  0  0  0  0
   -6.9065   -0.2753   30.1156 O   0  0  0  0  0  0  0  0  0  0  0  0
   -5.7383   -0.4003   29.3683 C   0  0  0  0  0  0  0  0  0  0  0  0
   -4.6649   -0.7148   29.9487 O   0  0  0  0  0  0  0  0  0  0  0  0
   -5.7821   -0.1656   27.9095 C   0  0  0  0  0  0  0  0  0  0  0  0
   -5.3208   -1.1157   26.9711 C   0  0  0  0  0  0  0  0  0  0  0  0
   -4.7554   -2.3214   27.4207 O   0  0  0  0  0  0  0  0  0  0  0  0
   -3.3645   -2.6614   27.4056 C   0  0  2  0  0  0  0  0  0  0  0  0
   -3.1352   -4.0737   26.8469 C   0  0  2  0  0  0  0  0  0  0  0  0
   -2.6198   -4.0494   25.4318 C   0  0  0  0  0  0  0  0  0  0  0  0
   -3.4953   -4.2578   24.3514 C   0  0  0  0  0  0  0  0  0  0  0  0
   -2.9987   -4.3418   23.0480 C   0  0  0  0  0  0  0  0  0  0  0  0
   -1.6296   -4.1989   22.8096 C   0  0  0  0  0  0  0  0  0  0  0  0
   -0.7542   -3.9699   23.8751 C   0  0  0  0  0  0  0  0  0  0  0  0
   -5.4369   -0.8133   25.6025 C   0  0  0  0  0  0  0  0  0  0  0  0
   -5.9216    0.4262   25.1933 C   0  0  0  0  0  0  0  0  0  0  0  0
   -6.2622    1.0300   27.4707 N   0  0  0  0  0  0  0  0  0  0  0  0
   -6.3258    1.3606   26.1533 C   0  0  0  0  0  0  0  0  0  0  0  0
   -6.8266    2.6946   25.7599 C   0  0  0  0  0  0  0  0  0  0  0  0
   -7.8778    3.2881   26.4738 C   0  0  0  0  0  0  0  0  0  0  0  0
   -7.8153    5.2208   25.0051 C   0  0  0  0  0  0  0  0  0  0  0  0
   -8.3401    6.5789   24.6206 C   0  0  2  0  0  0  0  0  0  0  0  0
   -8.2248    6.7818   23.1085 C   0  0  2  0  0  0  0  0  0  0  0  0
   -6.7708    6.6467   22.6366 C   0  0  1  0  0  0  0  0  0  0  0  0
   -6.2409    3.3949   24.6908 C   0  0  0  0  0  0  0  0  0  0  0  0
   -6.0790    5.4238   23.2075 C   0  0  0  0  0  0  0  0  0  0  0  0
   -4.8666    5.1042   22.8495 N   0  0  0  0  0  0  0  0  0  0  0  0
   -4.1213    5.7685   21.8597 N   0  0  0  0  0  0  0  0  0  0  0  0
   -2.7028    5.6255   21.8252 C   0  0  0  0  0  0  0  0  0  0  0  0
   -2.0777    4.4520   21.5926 N   0  0  0  0  0  0  0  0  0  0  0  0
   -0.2732    5.8749   21.9365 C   0  0  0  0  0  0  0  0  0  0  0  0
   -0.7241    4.5847   21.6549 C   0  0  0  0  0  0  0  0  0  0  0  0
    0.1812    3.4369   21.4724 C   0  0  0  0  0  0  0  0  0  0  0  0
    1.4227    3.6340   21.3647 O   0  0  0  0  0  0  0  0  0  0  0  0
   -0.3410    2.0996   21.4293 N   0  0  0  0  0  0  0  0  0  0  0  0
   -1.4525    1.7198   20.5619 C   0  0  1  0  0  0  0  0  0  0  0  0
   -0.9231    1.1284   19.2867 C   0  0  0  0  0  0  0  0  0  0  0  0
   -1.7745    0.9660   18.1813 C   0  0  0  0  0  0  0  0  0  0  0  0
   -1.2982    0.3752   17.0070 C   0  0  0  0  0  0  0  0  0  0  0  0
    0.4045    0.6748   19.2059 C   0  0  0  0  0  0  0  0  0  0  0  0
    0.8761    0.0831   18.0299 C   0  0  0  0  0  0  0  0  0  0  0  0
    0.0263   -0.0658   16.9307 C   0  0  0  0  0  0  0  0  0  0  0  0
   -9.1912    4.9736   26.6549 H   0  0  0  0  0  0  0  0  0  0  0  0
   -0.5535   -3.7490   26.0031 H   0  0  0  0  0  0  0  0  0  0  0  0
   -6.8724   -0.1760   31.1226 H   0  0  0  0  0  0  0  0  0  0  0  0
   -2.8938   -2.5310   28.4006 H   0  0  0  0  0  0  0  0  0  0  0  0
   -2.8535   -1.9483   26.7264 H   0  0  0  0  0  0  0  0  0  0  0  0
   -4.0977   -4.6313   26.8732 H   0  0  0  0  0  0  0  0  0  0  0  0
   -2.4283   -4.6199   27.5095 H   0  0  0  0  0  0  0  0  0  0  0  0
   -4.5557   -4.3912   24.5236 H   0  0  0  0  0  0  0  0  0  0  0  0
   -3.6764   -4.5339   22.2269 H   0  0  0  0  0  0  0  0  0  0  0  0
   -1.2447   -4.2726   21.8018 H   0  0  0  0  0  0  0  0  0  0  0  0
    0.3068   -3.8633   23.6895 H   0  0  0  0  0  0  0  0  0  0  0  0
   -5.1423   -1.5192   24.8415 H   0  0  0  0  0  0  0  0  0  0  0  0
   -5.9906    0.6475   24.1363 H   0  0  0  0  0  0  0  0  0  0  0  0
   -8.3322    2.7733   27.3113 H   0  0  0  0  0  0  0  0  0  0  0  0
   -7.7551    7.3606   25.1525 H   0  0  0  0  0  0  0  0  0  0  0  0
   -9.4084    6.6801   24.9137 H   0  0  0  0  0  0  0  0  0  0  0  0
   -8.6057    7.7915   22.8410 H   0  0  0  0  0  0  0  0  0  0  0  0
   -8.8568    6.0292   22.5856 H   0  0  0  0  0  0  0  0  0  0  0  0
   -6.7836    6.5904   21.5280 H   0  0  0  0  0  0  0  0  0  0  0  0
   -6.2038    7.5532   22.9418 H   0  0  0  0  0  0  0  0  0  0  0  0
   -5.4038    2.9567   24.1611 H   0  0  0  0  0  0  0  0  0  0  0  0
   -4.5785    6.3602   21.1313 H   0  0  0  0  0  0  0  0  0  0  0  0
    0.7580    6.1849   22.0405 H   0  0  0  0  0  0  0  0  0  0  0  0
    0.1405    1.3427   21.9667 H   0  0  0  0  0  0  0  0  0  0  0  0
   -2.0821    0.9657   21.0823 H   0  0  0  0  0  0  0  0  0  0  0  0
   -2.1023    2.5991   20.3633 H   0  0  0  0  0  0  0  0  0  0  0  0
   -2.8072    1.2920   18.2310 H   0  0  0  0  0  0  0  0  0  0  0  0
   -1.9580    0.2524   16.1580 H   0  0  0  0  0  0  0  0  0  0  0  0
    1.0736    0.7786   20.0512 H   0  0  0  0  0  0  0  0  0  0  0  0
    1.9001   -0.2632   17.9719 H   0  0  0  0  0  0  0  0  0  0  0  0
    0.3918   -0.5262   16.0217 H   0  0  0  0  0  0  0  0  0  0  0  0
  5  6  1  0
  6  7  2  0
  6  8  1  0
  8  9  2  0
  9 10  1  0
 10 11  1  0
 11 12  1  0
  4 13  2  0
 12 13  1  0
 13 14  1  0
 14 15  2  0
 15 16  1  0
 16 17  2  0
  4 17  1  0
  9 18  1  0
 18 19  2  0
  8 20  1  0
 19 21  1  0
 20 21  2  0
 21 22  1  0
 22 23  1  0
  3 23  2  0
  2 24  2  0
  3 24  1  0
 24 25  1  0
 25 26  1  0
 26 27  1  0
 22 28  2  0
  2 28  1  0
  2 29  1  0
 27 29  1  0
 29 30  2  0
 30 31  1  0
  1 32  1  0
 31 32  1  0
 32 33  2  0
  1 34  1  0
 34 35  2  0
 33 35  1  0
 35 36  1  0
 36 37  2  0
 36 38  1  0
 38 39  1  0
 39 40  1  0
 40 41  2  0
 41 42  1  0
 40 43  1  0
 43 44  2  0
 42 45  2  0
 44 45  1  0
  3 46  1  0
  4 47  1  0
  5 48  1  0
 11 49  1  1
 11 50  1  0
 12 51  1  6
 12 52  1  0
 14 53  1  0
 15 54  1  0
 16 55  1  0
 17 56  1  0
 18 57  1  0
 19 58  1  0
 23 59  1  0
 25 60  1  1
 25 61  1  0
 26 62  1  1
 26 63  1  0
 27 64  1  6
 27 65  1  0
 28 66  1  0
 31 67  1  0
 34 68  1  0
 38 69  1  0
 39 70  1  1
 39 71  1  0
 41 72  1  0
 42 73  1  0
 43 74  1  0
 44 75  1  0
 45 76  1  0
M  END
