7OLI_8HG_B_301
     RDKit          3D

 20 22  0  0  0  0  0  0  0  0999 V2000
   12.8171   20.9973   37.0260 O   0  0  0  0  0  0  0  0  0  0  0  0
   12.7433   22.0645   36.3340 C   0  0  0  0  0  0  0  0  0  0  0  0
   13.8608   22.7085   35.9220 N   0  0  0  0  0  0  0  0  0  0  0  0
   13.7619   23.8453   35.1847 C   0  0  0  0  0  0  0  0  0  0  0  0
   14.9108   24.5269   34.7485 N   0  0  0  0  0  0  0  0  0  0  0  0
   12.5614   24.3617   34.8440 N   0  0  0  0  0  0  0  0  0  0  0  0
   11.4159   23.7676   35.2235 C   0  0  0  0  0  0  0  0  0  0  0  0
   11.5302   22.6159   35.9706 C   0  0  0  0  0  0  0  0  0  0  0  0
   10.2985   22.1803   36.2469 N   0  0  0  0  0  0  0  0  0  0  0  0
    9.4511   23.0551   35.6757 C   0  0  0  0  0  0  0  0  0  0  0  0
    8.2086   22.9403   35.7440 O   0  0  0  0  0  0  0  0  0  0  0  0
   10.1045   24.0321   35.0456 N   0  0  0  0  0  0  0  0  0  0  0  0
    9.5911   25.1627   34.3102 C   0  0  2  0  0  0  0  0  0  0  0  0
    8.8277   25.9245   35.1616 O   0  0  0  0  0  0  0  0  0  0  0  0
    8.7766   24.8184   33.1131 C   0  0  0  0  0  0  0  0  0  0  0  0
    7.6517   25.8252   33.2330 C   0  0  2  0  0  0  0  0  0  0  0  0
    8.0857   27.0730   32.7773 O   0  0  0  0  0  0  0  0  0  0  0  0
    7.5264   25.9031   34.7385 C   0  0  1  0  0  0  0  0  0  0  0  0
    6.7545   24.6656   35.1915 C   0  0  0  0  0  0  0  0  0  0  0  0
    5.9037   25.0533   36.2146 O   0  0  0  0  0  0  0  0  0  0  0  0
  1  2  2  0
  2  3  1  0
  3  4  1  0
  4  5  1  0
  4  6  2  0
  6  7  1  0
  2  8  1  0
  7  8  2  0
  8  9  1  0
  9 10  1  0
 10 11  2  0
  7 12  1  0
 10 12  1  0
 13 12  1  1
 13 14  1  0
 13 15  1  0
 15 16  1  0
 16 17  1  1
 14 18  1  0
 16 18  1  0
 18 19  1  1
 19 20  1  0
M  END
$$$$
