
     RDKit          3D

 16 16  0  0  0  0  0  0  0  0999 V2000
  -40.3577  -30.2206   18.3818 N   0  0  0  0  0  0  0  0  0  0  0  0
  -39.2503  -30.9966   18.3661 C   0  0  0  0  0  0  0  0  0  0  0  0
  -39.4188  -32.3746   18.9336 C   0  0  0  0  0  0  0  0  0  0  0  0
  -38.0341  -30.5413   17.8557 C   0  0  0  0  0  0  0  0  0  0  0  0
  -36.9115  -31.3258   17.8344 O   0  0  0  0  0  0  0  0  0  0  0  0
  -37.9644  -29.2383   17.3377 C   0  0  0  0  0  0  0  0  0  0  0  0
  -36.6602  -28.7824   16.7952 C   0  0  0  0  0  0  0  0  0  0  0  0
  -36.1206  -29.2912   15.8212 O   0  0  0  0  0  0  0  0  0  0  0  0
  -39.1021  -28.4171   17.3447 C   0  0  0  0  0  0  0  0  0  0  0  0
  -40.2588  -28.9668   17.8864 C   0  0  0  0  0  0  0  0  0  0  0  0
  -39.1337  -26.9878   16.8879 C   0  0  0  0  0  0  0  0  0  0  0  0
  -38.3310  -26.2256   17.7676 O   0  0  0  0  0  0  0  0  0  0  0  0
  -37.3263  -25.1917   17.0812 P   0  0  0  0  0  5  0  0  0  0  0  0
  -36.1450  -25.7697   16.3844 O   0  0  0  0  0  0  0  0  0  0  0  0
  -36.9772  -24.1272   18.2127 O   0  0  0  0  0  0  0  0  0  0  0  0
  -38.2819  -24.3477   16.1212 O   0  0  0  0  0  0  0  0  0  0  0  0
  1  2  4  0
  2  3  1  0
  2  4  4  0
  4  5  1  0
  4  6  4  0
  6  7  1  0
  7  8  2  0
  6  9  4  0
  1 10  4  0
  9 10  4  0
  9 11  1  0
 11 12  1  0
 12 13  1  0
 13 14  2  0
 13 15  1  0
 13 16  1  0
M  END
