1S19_MC9_A_500
     RDKit          3D

 30 33  0  0  0  0  0  0  0  0999 V2000
   -3.0484   25.6890   36.3278 O   0  0  0  0  0  0  0  0  0  0  0  0
   -2.3365   26.0772   32.1308 O   0  0  0  0  0  0  0  0  0  0  0  0
   -2.1297   27.0977   33.0272 C   0  0  1  0  0  0  0  0  0  0  0  0
   -2.8603   26.8901   34.3467 C   0  0  0  0  0  0  0  0  0  0  0  0
   -2.2636   25.7921   35.1662 C   0  0  1  0  0  0  0  0  0  0  0  0
   -0.8251   26.0639   35.5411 C   0  0  0  0  0  0  0  0  0  0  0  0
   -0.0819   26.2717   34.2394 C   0  0  0  0  0  0  0  0  0  0  0  0
    1.0285   25.6385   34.0047 C   0  0  0  0  0  0  0  0  0  0  0  0
    2.3704   25.9942   34.4139 C   0  0  0  0  0  0  0  0  0  0  0  0
    3.4365   25.2919   34.0250 C   0  0  0  0  0  0  0  0  0  0  0  0
    3.3472   24.2827   32.9348 C   0  0  0  0  0  0  0  0  0  0  0  0
   -0.6545   27.2198   33.2916 C   0  0  0  0  0  0  0  0  0  0  0  0
    4.5006   23.3502   33.0379 C   0  0  0  0  0  0  0  0  0  0  0  0
    5.8552   23.9421   33.1560 C   0  0  0  0  0  0  0  0  0  0  0  0
    5.7933   25.3982   33.5319 C   0  0  1  0  0  0  0  0  0  0  0  0
    4.7682   25.4849   34.6534 C   0  0  1  0  0  0  0  0  0  0  0  0
    4.9848   26.8416   35.1972 C   0  0  0  0  0  0  0  0  0  0  0  0
    6.4467   27.1200   34.9749 C   0  0  0  0  0  0  0  0  0  0  0  0
    6.9987   25.9056   34.2140 C   0  0  2  0  0  0  0  0  0  0  0  0
    5.4110   26.2898   32.3769 C   0  0  0  0  0  0  0  0  0  0  0  0
    0.1033   28.1250   32.7129 C   0  0  0  0  0  0  0  0  0  0  0  0
    8.1975   26.2522   33.4263 C   0  0  1  0  0  0  0  0  0  0  0  0
    9.3033   26.8262   34.2612 C   0  0  0  0  0  0  0  0  0  0  0  0
   10.8641   26.8125   36.1131 C   0  0  2  0  0  0  0  0  0  0  0  0
    8.7761   25.0239   32.7794 C   0  0  0  0  0  0  0  0  0  0  0  0
   11.2272   26.0346   37.3724 C   0  0  2  0  0  0  0  0  0  0  0  0
   12.6878   25.6901   37.5148 C   0  0  0  0  0  0  0  0  0  0  0  0
   11.6434   24.6285   37.2774 C   0  0  0  0  0  0  0  0  0  0  0  0
   10.6411   28.1273   36.5119 O   0  0  0  0  0  0  0  0  0  0  0  0
    9.7558   26.2123   35.3566 C   0  0  0  0  0  0  0  0  0  0  0  0
  3  2  1  6
  3  4  1  0
  5  1  1  1
  4  5  1  0
  5  6  1  0
  6  7  1  0
  7  8  2  0
  8  9  1  0
  9 10  2  0
 10 11  1  0
  3 12  1  0
  7 12  1  0
 11 13  1  0
 13 14  1  0
 14 15  1  0
 10 16  1  0
 15 16  1  0
 16 17  1  6
 17 18  1  0
 15 19  1  0
 19 18  1  6
 15 20  1  6
 12 21  2  0
 19 22  1  0
 22 23  1  0
 22 25  1  1
 24 26  1  0
 26 27  1  6
 26 28  1  0
 27 28  1  0
 24 29  1  1
 23 30  2  0
 24 30  1  0
M  END
$$$$
