1S19_MC9_A_500
     RDKit          3D

 30 33  0  0  0  0  0  0  0  0999 V2000
   -9.3213    9.6285   60.6397 O   0  0  0  0  0  0  0  0  0  0  0  0
   -8.1254   10.6354   56.6611 O   0  0  0  0  0  0  0  0  0  0  0  0
   -8.7991   11.5023   57.4872 C   0  0  1  0  0  0  0  0  0  0  0  0
   -9.5026   10.8018   58.6414 C   0  0  0  0  0  0  0  0  0  0  0  0
   -8.5457   10.2722   59.6598 C   0  0  1  0  0  0  0  0  0  0  0  0
   -7.7145   11.3616   60.2969 C   0  0  0  0  0  0  0  0  0  0  0  0
   -7.0056   12.0692   59.1627 C   0  0  0  0  0  0  0  0  0  0  0  0
   -5.7256   12.2876   59.2181 C   0  0  0  0  0  0  0  0  0  0  0  0
   -4.7965   11.9277   60.2678 C   0  0  0  0  0  0  0  0  0  0  0  0
   -3.5138   12.2942   60.2315 C   0  0  0  0  0  0  0  0  0  0  0  0
   -3.1129   13.7266   60.2804 C   0  0  0  0  0  0  0  0  0  0  0  0
   -7.8232   12.5054   58.0374 C   0  0  0  0  0  0  0  0  0  0  0  0
   -1.7292   13.8639   59.7543 C   0  0  0  0  0  0  0  0  0  0  0  0
   -0.6900   12.9627   60.3087 C   0  0  0  0  0  0  0  0  0  0  0  0
   -1.2995   11.8001   61.0450 C   0  0  1  0  0  0  0  0  0  0  0  0
   -2.4197   11.2935   60.1479 C   0  0  1  0  0  0  0  0  0  0  0  0
   -2.7563    9.9842   60.7442 C   0  0  0  0  0  0  0  0  0  0  0  0
   -1.4668    9.4850   61.3376 C   0  0  0  0  0  0  0  0  0  0  0  0
   -0.4386   10.6049   61.1207 C   0  0  2  0  0  0  0  0  0  0  0  0
   -1.8237   12.1751   62.4087 C   0  0  0  0  0  0  0  0  0  0  0  0
   -7.6935   13.7192   57.5491 C   0  0  0  0  0  0  0  0  0  0  0  0
    0.6516   10.5464   62.1135 C   0  0  1  0  0  0  0  0  0  0  0  0
    1.4514    9.2801   62.0340 C   0  0  0  0  0  0  0  0  0  0  0  0
    3.2038    7.7655   62.7415 C   0  0  2  0  0  0  0  0  0  0  0  0
    1.6353   11.6603   61.8819 C   0  0  0  0  0  0  0  0  0  0  0  0
    3.0055    6.7653   63.8742 C   0  0  2  0  0  0  0  0  0  0  0  0
    3.5275    7.2060   65.2178 C   0  0  0  0  0  0  0  0  0  0  0  0
    4.1619    6.0697   64.4559 C   0  0  0  0  0  0  0  0  0  0  0  0
    4.5763    7.9692   62.6306 O   0  0  0  0  0  0  0  0  0  0  0  0
    2.4196    8.9977   62.9081 C   0  0  0  0  0  0  0  0  0  0  0  0
  3  2  1  1
  3  4  1  0
  5  1  1  1
  4  5  1  0
  5  6  1  0
  6  7  1  0
  7  8  2  0
  8  9  1  0
  9 10  2  0
 10 11  1  0
  3 12  1  0
  7 12  1  0
 11 13  1  0
 13 14  1  0
 14 15  1  0
 10 16  1  0
 15 16  1  0
 16 17  1  1
 17 18  1  0
 15 19  1  0
 19 18  1  1
 15 20  1  1
 12 21  2  0
 19 22  1  0
 22 23  1  0
 22 25  1  6
 24 26  1  0
 26 27  1  1
 26 28  1  0
 27 28  1  0
 24 29  1  1
 23 30  2  0
 24 30  1  0
M  END
$$$$
