1S19_MC9_A_500
     RDKit          3D

 30 33  0  0  0  0  0  0  0  0999 V2000
   27.8684   19.8403   25.9369 O   0  0  0  0  0  0  0  0  0  0  0  0
   27.9427   15.8716   24.3505 O   0  0  0  0  0  0  0  0  0  0  0  0
   28.5765   16.2287   25.5161 C   0  0  1  0  0  0  0  0  0  0  0  0
   28.7965   17.7301   25.6400 C   0  0  0  0  0  0  0  0  0  0  0  0
   27.5249   18.4786   25.8769 C   0  0  1  0  0  0  0  0  0  0  0  0
   26.8384   18.0654   27.1582 C   0  0  0  0  0  0  0  0  0  0  0  0
   26.6100   16.5733   27.0522 C   0  0  0  0  0  0  0  0  0  0  0  0
   25.4412   16.0647   27.3055 C   0  0  0  0  0  0  0  0  0  0  0  0
   24.5920   16.2910   28.4554 C   0  0  0  0  0  0  0  0  0  0  0  0
   23.5483   15.5052   28.7279 C   0  0  0  0  0  0  0  0  0  0  0  0
   23.4651   14.1142   28.2052 C   0  0  0  0  0  0  0  0  0  0  0  0
   27.7549   15.7506   26.6812 C   0  0  0  0  0  0  0  0  0  0  0  0
   22.0495   13.6616   28.2466 C   0  0  0  0  0  0  0  0  0  0  0  0
   21.3084   13.8368   29.5192 C   0  0  0  0  0  0  0  0  0  0  0  0
   22.0114   14.7946   30.4431 C   0  0  1  0  0  0  0  0  0  0  0  0
   22.4196   15.9737   29.5718 C   0  0  1  0  0  0  0  0  0  0  0  0
   22.7970   17.0034   30.5620 C   0  0  0  0  0  0  0  0  0  0  0  0
   21.9289   16.7269   31.7595 C   0  0  0  0  0  0  0  0  0  0  0  0
   21.1297   15.4601   31.4204 C   0  0  2  0  0  0  0  0  0  0  0  0
   23.2097   14.1834   31.1256 C   0  0  0  0  0  0  0  0  0  0  0  0
   28.0318   14.6524   27.3489 C   0  0  0  0  0  0  0  0  0  0  0  0
   20.7046   14.7398   32.6362 C   0  0  1  0  0  0  0  0  0  0  0  0
   19.9739   15.6138   33.6117 C   0  0  0  0  0  0  0  0  0  0  0  0
   18.0706   16.9064   34.3683 C   0  0  2  0  0  0  0  0  0  0  0  0
   19.7450   13.6359   32.2860 C   0  0  0  0  0  0  0  0  0  0  0  0
   16.9990   16.0891   35.0799 C   0  0  2  0  0  0  0  0  0  0  0  0
   15.5939   16.2948   34.5743 C   0  0  0  0  0  0  0  0  0  0  0  0
   16.0168   16.7548   35.9468 C   0  0  0  0  0  0  0  0  0  0  0  0
   17.4457   18.0627   33.9101 O   0  0  0  0  0  0  0  0  0  0  0  0
   18.7853   16.1512   33.3291 C   0  0  0  0  0  0  0  0  0  0  0  0
  3  2  1  6
  3  4  1  0
  5  1  1  1
  4  5  1  0
  5  6  1  0
  6  7  1  0
  7  8  2  0
  8  9  1  0
  9 10  2  0
 10 11  1  0
  3 12  1  0
  7 12  1  0
 11 13  1  0
 13 14  1  0
 14 15  1  0
 10 16  1  0
 15 16  1  0
 16 17  1  1
 17 18  1  0
 15 19  1  0
 19 18  1  1
 15 20  1  1
 12 21  2  0
 19 22  1  0
 22 23  1  0
 22 25  1  6
 24 26  1  0
 26 27  1  6
 26 28  1  0
 27 28  1  0
 24 29  1  6
 23 30  2  0
 24 30  1  0
M  END
$$$$
