1K3U_IAD_A_801
     RDKit          3D

 35 36  0  0  0  0  0  0  0  0999 V2000
   56.0180   29.2810   18.3267 O   0  0  0  0  0  0  0  0  0  0  0  0
   54.6989   29.3823   18.1290 C   0  0  0  0  0  0  0  0  0  0  0  0
   53.8611   29.5597   19.1146 O   0  0  0  0  0  0  0  0  0  0  0  0
   54.1634   29.3379   16.6835 C   0  0  0  0  0  0  0  0  0  0  0  0
   52.6072   29.5213   16.7239 C   0  0  1  0  0  0  0  0  0  0  0  0
   51.9494   29.0862   15.4176 C   0  0  0  0  0  0  0  0  0  0  0  0
   51.7637   27.7744   15.1828 O   0  0  0  0  0  0  0  0  0  0  0  0
   51.5302   29.9758   14.6169 O   0  0  0  0  0  0  0  0  0  0  0  0
   52.0434   28.6655   17.7745 N   0  0  0  0  0  0  0  0  0  0  0  0
   51.8120   27.2931   17.5902 C   0  0  0  0  0  0  0  0  0  0  0  0
   51.2881   26.6106   18.4519 O   0  0  0  0  0  0  0  0  0  0  0  0
   52.1809   26.7187   16.2256 C   0  0  0  0  0  0  0  0  0  0  0  0
   51.4058   27.4683   15.1390 C   0  0  0  0  0  0  0  0  0  0  0  0
   51.9660   28.1125   14.0168 C   0  0  0  0  0  0  0  0  0  0  0  0
   50.9003   28.6350   13.2880 N   0  0  0  0  0  4  0  0  0  0  0  0
   49.9980   27.5508   15.0531 C   0  0  0  0  0  0  0  0  0  0  0  0
   48.9780   27.0210   15.8431 C   0  0  0  0  0  0  0  0  0  0  0  0
   49.7075   28.3033   13.9142 C   0  0  0  0  0  0  0  0  0  0  0  0
   48.3762   28.5535   13.5679 C   0  0  0  0  0  0  0  0  0  0  0  0
   47.3585   28.0507   14.3574 C   0  0  0  0  0  0  0  0  0  0  0  0
   47.6648   27.3000   15.4831 C   0  0  0  0  0  0  0  0  0  0  0  0
   56.5926   29.1539   17.5976 H   0  0  0  0  0  0  0  0  0  0  0  0
   54.4043   28.3953   16.2382 H   0  0  0  0  0  0  0  0  0  0  0  0
   54.6097   30.1182   16.1031 H   0  0  0  0  0  0  0  0  0  0  0  0
   52.4201   30.5601   16.8990 H   0  0  0  0  0  0  0  0  0  0  0  0
   51.6740   30.8821   14.8064 H   0  0  0  0  0  0  0  0  0  0  0  0
   51.8183   29.0700   18.6434 H   0  0  0  0  0  0  0  0  0  0  0  0
   51.9275   25.6796   16.1940 H   0  0  0  0  0  0  0  0  0  0  0  0
   53.2321   26.8308   16.0601 H   0  0  0  0  0  0  0  0  0  0  0  0
   52.9685   28.1830   13.7818 H   0  0  0  0  0  0  0  0  0  0  0  0
   50.9809   29.1582   12.4579 H   0  0  0  0  0  0  0  0  0  0  0  0
   49.1917   26.4402   16.6689 H   0  0  0  0  0  0  0  0  0  0  0  0
   48.1544   29.1103   12.7278 H   0  0  0  0  0  0  0  0  0  0  0  0
   46.3735   28.2334   14.1099 H   0  0  0  0  0  0  0  0  0  0  0  0
   46.8962   26.9387   16.0695 H   0  0  0  0  0  0  0  0  0  0  0  0
  1  2  1  0
  2  3  2  0
  2  4  1  0
  5  4  1  0
  5  6  1  0
  6  7  2  0
  6  8  1  0
  5  9  1  0
  9 10  1  0
 10 11  2  0
 10 12  1  0
 12 13  1  0
 13 14  4  0
 14 15  4  0
 13 16  4  0
 16 17  4  0
 15 18  4  0
 16 18  4  0
 18 19  4  0
 19 20  4  0
 17 21  4  0
 20 21  4  0
  1 22  1  0
  4 23  1  0
  4 24  1  0
  5 25  1  1
  8 26  1  0
  9 27  1  0
 12 28  1  0
 12 29  1  0
 14 30  1  0
 15 31  1  0
 17 32  1  0
 19 33  1  0
 20 34  1  0
 21 35  1  0
M  CHG  1  15   1
M  END
