1XM6_5RM_A_1003
     RDKit          3D

 19 20  0  0  0  0  0  0  0  0999 V2000
   83.0079    1.6777   13.3002 O   0  0  0  0  0  0  0  0  0  0  0  0
   83.6892    1.5977   12.2237 C   0  0  0  0  0  0  0  0  0  0  0  0
   84.0952    0.4442   11.5579 O   0  0  0  0  0  0  0  0  0  0  0  0
   84.1757    2.7297   11.4812 N   0  0  0  0  0  0  0  0  0  0  0  0
   84.9062    2.1866   10.3593 C   0  0  0  0  0  0  0  0  0  0  0  0
   85.2823    0.8159   10.8395 C   0  0  2  0  0  0  0  0  0  0  0  0
   85.5458   -0.1545    9.7371 C   0  0  0  0  0  0  0  0  0  0  0  0
   86.3773    0.7717   11.8118 C   0  0  0  0  0  0  0  0  0  0  0  0
   87.5567    1.4171   11.5070 C   0  0  0  0  0  0  0  0  0  0  0  0
   88.5680    1.3581   12.4407 C   0  0  0  0  0  0  0  0  0  0  0  0
   88.4033    0.6814   13.6275 C   0  0  0  0  0  0  0  0  0  0  0  0
   89.4619    0.6606   14.5251 O   0  0  0  0  0  0  0  0  0  0  0  0
   90.7160    1.1854   14.1413 C   0  0  0  0  0  0  0  0  0  0  0  0
   87.2086    0.0214   13.9481 C   0  0  0  0  0  0  0  0  0  0  0  0
   86.2162    0.0940   13.0043 C   0  0  0  0  0  0  0  0  0  0  0  0
   87.1621   -0.6143   15.1457 O   0  0  0  0  0  0  0  0  0  0  0  0
   86.2715   -1.4625   15.7438 C   0  0  0  0  0  0  0  0  0  0  0  0
   86.5486   -1.7549   17.1957 C   0  0  0  0  0  0  0  0  0  0  0  0
   86.8788   -3.2334   17.4022 C   0  0  0  0  0  0  0  0  0  0  0  0
  1  2  2  0
  2  3  1  0
  2  4  1  0
  4  5  1  0
  3  6  1  0
  5  6  1  0
  6  7  1  6
  6  8  1  0
  8  9  2  0
  9 10  1  0
 10 11  2  0
 11 12  1  0
 12 13  1  0
 11 14  1  0
  8 15  1  0
 14 15  2  0
 14 16  1  0
 16 17  1  0
 17 18  1  0
 18 19  1  0
M  END
$$$$
