1XM6_5RM_A_1003
     RDKit          3D

 19 20  0  0  0  0  0  0  0  0999 V2000
   46.6757    0.5592   -4.8883 O   0  0  0  0  0  0  0  0  0  0  0  0
   47.2105    1.2415   -5.8254 C   0  0  0  0  0  0  0  0  0  0  0  0
   47.1034    2.6119   -6.0472 O   0  0  0  0  0  0  0  0  0  0  0  0
   48.0501    0.6923   -6.8563 N   0  0  0  0  0  0  0  0  0  0  0  0
   48.4133    1.8014   -7.7079 C   0  0  0  0  0  0  0  0  0  0  0  0
   47.3106    2.7875   -7.4578 C   0  0  2  0  0  0  0  0  0  0  0  0
   47.6906    4.1998   -7.7536 C   0  0  0  0  0  0  0  0  0  0  0  0
   46.0318    2.4729   -8.0996 C   0  0  0  0  0  0  0  0  0  0  0  0
   44.8658    2.7581   -7.4218 C   0  0  0  0  0  0  0  0  0  0  0  0
   43.6790    2.4511   -8.0506 C   0  0  0  0  0  0  0  0  0  0  0  0
   43.6629    1.8829   -9.3037 C   0  0  0  0  0  0  0  0  0  0  0  0
   42.4332    1.5984   -9.8811 O   0  0  0  0  0  0  0  0  0  0  0  0
   41.2487    2.0772   -9.2782 C   0  0  0  0  0  0  0  0  0  0  0  0
   44.8423    1.5883  -10.0023 C   0  0  0  0  0  0  0  0  0  0  0  0
   46.0110    1.9028   -9.3573 C   0  0  0  0  0  0  0  0  0  0  0  0
   44.7035    1.0272  -11.2297 O   0  0  0  0  0  0  0  0  0  0  0  0
   45.5778    0.6250  -12.2012 C   0  0  0  0  0  0  0  0  0  0  0  0
   44.9460   -0.0828  -13.3718 C   0  0  0  0  0  0  0  0  0  0  0  0
   45.7048    0.2155  -14.6653 C   0  0  0  0  0  0  0  0  0  0  0  0
  1  2  2  0
  2  3  1  0
  2  4  1  0
  4  5  1  0
  3  6  1  0
  5  6  1  0
  6  7  1  1
  6  8  1  0
  8  9  2  0
  9 10  1  0
 10 11  2  0
 11 12  1  0
 12 13  1  0
 11 14  1  0
  8 15  1  0
 14 15  2  0
 14 16  1  0
 16 17  1  0
 17 18  1  0
 18 19  1  0
M  END
$$$$
