1XM6_5RM_A_1003
     RDKit          3D

 19 20  0  0  0  0  0  0  0  0999 V2000
   74.1425   19.3382   12.7959 O   0  0  0  0  0  0  0  0  0  0  0  0
   74.2729   18.3859   11.9558 C   0  0  0  0  0  0  0  0  0  0  0  0
   73.3092   17.4614   11.5620 O   0  0  0  0  0  0  0  0  0  0  0  0
   75.4858   18.0900   11.2413 N   0  0  0  0  0  0  0  0  0  0  0  0
   75.1959   16.9336   10.4253 C   0  0  0  0  0  0  0  0  0  0  0  0
   74.0432   16.2988   11.1457 C   0  0  2  0  0  0  0  0  0  0  0  0
   73.1940   15.4346   10.2748 C   0  0  0  0  0  0  0  0  0  0  0  0
   74.3921   15.5770   12.3719 C   0  0  0  0  0  0  0  0  0  0  0  0
   73.3746   15.0644   13.1479 C   0  0  0  0  0  0  0  0  0  0  0  0
   73.7336   14.3906   14.2947 C   0  0  0  0  0  0  0  0  0  0  0  0
   75.0549   14.2383   14.6474 C   0  0  0  0  0  0  0  0  0  0  0  0
   75.3485   13.5486   15.8158 O   0  0  0  0  0  0  0  0  0  0  0  0
   74.3478   12.7715   16.4407 C   0  0  0  0  0  0  0  0  0  0  0  0
   76.0979   14.7555   13.8663 C   0  0  0  0  0  0  0  0  0  0  0  0
   75.7169   15.4215   12.7296 C   0  0  0  0  0  0  0  0  0  0  0  0
   77.3612   14.5456   14.3143 O   0  0  0  0  0  0  0  0  0  0  0  0
   78.6071   14.8413   13.8344 C   0  0  0  0  0  0  0  0  0  0  0  0
   79.7412   14.5353   14.7781 C   0  0  0  0  0  0  0  0  0  0  0  0
   79.4772   15.1312   16.1612 C   0  0  0  0  0  0  0  0  0  0  0  0
  1  2  2  0
  2  3  1  0
  2  4  1  0
  4  5  1  0
  3  6  1  0
  5  6  1  0
  6  7  1  6
  6  8  1  0
  8  9  2  0
  9 10  1  0
 10 11  2  0
 11 12  1  0
 12 13  1  0
 11 14  1  0
  8 15  1  0
 14 15  2  0
 14 16  1  0
 16 17  1  0
 17 18  1  0
 18 19  1  0
M  END
$$$$
