1XM6_5RM_A_1003
     RDKit          3D

 19 20  0  0  0  0  0  0  0  0999 V2000
   69.7661   18.1660    1.8733 O   0  0  0  0  0  0  0  0  0  0  0  0
   70.2951   17.0600    1.5175 C   0  0  0  0  0  0  0  0  0  0  0  0
   70.8888   16.1001    2.3328 O   0  0  0  0  0  0  0  0  0  0  0  0
   70.3733   16.5938    0.1589 N   0  0  0  0  0  0  0  0  0  0  0  0
   71.0613   15.3245    0.2117 C   0  0  0  0  0  0  0  0  0  0  0  0
   71.8350   15.4189    1.4936 C   0  0  2  0  0  0  0  0  0  0  0  0
   72.1873   14.0930    2.0805 C   0  0  0  0  0  0  0  0  0  0  0  0
   73.0249   16.2722    1.4455 C   0  0  0  0  0  0  0  0  0  0  0  0
   73.3031   16.9510    0.2784 C   0  0  0  0  0  0  0  0  0  0  0  0
   74.4285   17.7455    0.2633 C   0  0  0  0  0  0  0  0  0  0  0  0
   75.2389   17.8540    1.3700 C   0  0  0  0  0  0  0  0  0  0  0  0
   76.3577   18.6715    1.2885 O   0  0  0  0  0  0  0  0  0  0  0  0
   76.6699   19.3117    0.0685 C   0  0  0  0  0  0  0  0  0  0  0  0
   74.9661   17.1683    2.5621 C   0  0  0  0  0  0  0  0  0  0  0  0
   73.8409   16.3841    2.5540 C   0  0  0  0  0  0  0  0  0  0  0  0
   75.8365   17.3502    3.5867 O   0  0  0  0  0  0  0  0  0  0  0  0
   75.8925   16.9154    4.8821 C   0  0  0  0  0  0  0  0  0  0  0  0
   77.0627   17.4342    5.6769 C   0  0  0  0  0  0  0  0  0  0  0  0
   77.4858   16.4275    6.7471 C   0  0  0  0  0  0  0  0  0  0  0  0
  1  2  2  0
  2  3  1  0
  2  4  1  0
  4  5  1  0
  3  6  1  0
  5  6  1  0
  6  7  1  1
  6  8  1  0
  8  9  2  0
  9 10  1  0
 10 11  2  0
 11 12  1  0
 12 13  1  0
 11 14  1  0
  8 15  1  0
 14 15  2  0
 14 16  1  0
 16 17  1  0
 17 18  1  0
 18 19  1  0
M  END
$$$$
