1XM6_5RM_A_1003
     RDKit          3D

 19 20  0  0  0  0  0  0  0  0999 V2000
   49.2328    3.1887  -10.0174 O   0  0  0  0  0  0  0  0  0  0  0  0
   48.8234    2.8511   -8.8564 C   0  0  0  0  0  0  0  0  0  0  0  0
   48.6116    1.5637   -8.3704 O   0  0  0  0  0  0  0  0  0  0  0  0
   48.4967    3.7782   -7.8061 N   0  0  0  0  0  0  0  0  0  0  0  0
   48.0611    2.9753   -6.6868 C   0  0  0  0  0  0  0  0  0  0  0  0
   47.6162    1.7021   -7.3440 C   0  0  2  0  0  0  0  0  0  0  0  0
   47.6403    0.5182   -6.4361 C   0  0  0  0  0  0  0  0  0  0  0  0
   46.3260    1.7717   -8.0347 C   0  0  0  0  0  0  0  0  0  0  0  0
   45.2399    2.2791   -7.3541 C   0  0  0  0  0  0  0  0  0  0  0  0
   44.0404    2.3320   -8.0296 C   0  0  0  0  0  0  0  0  0  0  0  0
   43.9352    1.8950   -9.3300 C   0  0  0  0  0  0  0  0  0  0  0  0
   42.6974    1.9759   -9.9531 O   0  0  0  0  0  0  0  0  0  0  0  0
   41.5540    2.3185   -9.1975 C   0  0  0  0  0  0  0  0  0  0  0  0
   45.0327    1.3768  -10.0320 C   0  0  0  0  0  0  0  0  0  0  0  0
   46.2160    1.3343   -9.3400 C   0  0  0  0  0  0  0  0  0  0  0  0
   44.8094    0.9749  -11.3084 O   0  0  0  0  0  0  0  0  0  0  0  0
   45.5600    0.3309  -12.2529 C   0  0  0  0  0  0  0  0  0  0  0  0
   44.9049    0.1977  -13.6033 C   0  0  0  0  0  0  0  0  0  0  0  0
   45.8694   -0.4123  -14.6208 C   0  0  0  0  0  0  0  0  0  0  0  0
  1  2  2  0
  2  3  1  0
  2  4  1  0
  4  5  1  0
  3  6  1  0
  5  6  1  0
  6  7  1  1
  6  8  1  0
  8  9  2  0
  9 10  1  0
 10 11  2  0
 11 12  1  0
 12 13  1  0
 11 14  1  0
  8 15  1  0
 14 15  2  0
 14 16  1  0
 16 17  1  0
 17 18  1  0
 18 19  1  0
M  END
$$$$
