6ZPB_3D1_A_201
     RDKit          3D

 18 20  0  0  0  0  0  0  0  0999 V2000
   10.9745   14.1850   -4.1064 O   0  0  0  0  0  0  0  0  0  0  0  0
   10.5751   13.3116   -3.0683 C   0  0  0  0  0  0  0  0  0  0  0  0
   10.0496   12.0852   -3.7441 C   0  0  1  0  0  0  0  0  0  0  0  0
    9.5258   12.3487   -5.0100 O   0  0  0  0  0  0  0  0  0  0  0  0
    9.1375   11.0470   -5.3946 C   0  0  1  0  0  0  0  0  0  0  0  0
    8.8377   10.9691   -6.7963 N   0  0  0  0  0  0  0  0  0  0  0  0
    7.9315   10.1493   -7.3615 C   0  0  0  0  0  0  0  0  0  0  0  0
    7.0830    9.2281   -6.9249 N   0  0  0  0  0  0  0  0  0  0  0  0
    6.2851    8.5639   -7.7845 C   0  0  0  0  0  0  0  0  0  0  0  0
    6.3107    8.8012   -9.1145 N   0  0  0  0  0  0  0  0  0  0  0  0
    7.1501    9.7243   -9.6197 C   0  0  0  0  0  0  0  0  0  0  0  0
    7.2068   10.0041  -11.0203 N   0  0  0  0  0  0  0  0  0  0  0  0
    7.9693   10.4056   -8.7331 C   0  0  0  0  0  0  0  0  0  0  0  0
    8.8897   11.3677   -8.9734 N   0  0  0  0  0  0  0  0  0  0  0  0
    9.4161   11.7031   -7.7599 C   0  0  0  0  0  0  0  0  0  0  0  0
   10.2658   10.1334   -4.9776 C   0  0  0  0  0  0  0  0  0  0  0  0
   11.0962   11.0658   -4.0853 C   0  0  2  0  0  0  0  0  0  0  0  0
   11.6548   10.4229   -3.0102 O   0  0  0  0  0  0  0  0  0  0  0  0
  1  2  1  0
  3  2  1  6
  3  4  1  0
  4  5  1  0
  5  6  1  6
  6  7  1  0
  7  8  2  0
  8  9  1  0
  9 10  2  0
 10 11  1  0
 11 12  1  0
  7 13  1  0
 11 13  2  0
 13 14  1  0
  6 15  1  0
 14 15  2  0
  5 16  1  0
  3 17  1  0
 16 17  1  0
 17 18  1  1
M  END
$$$$
