7KZ9_XN7_B_601
     RDKit          3D

 11 10  0  0  0  0  0  0  0  0999 V2000
  -51.5687   50.2414  -19.9252 C   0  0  0  0  0  0  0  0  0  0  0  0
  -52.8948   49.5992  -20.2321 C   0  0  0  0  0  0  0  0  0  0  0  0
  -54.5673   49.2422  -18.5672 C   0  0  0  0  0  0  0  0  0  0  0  0
  -54.9867   48.4856  -17.3565 C   0  0  0  0  0  0  0  0  0  0  0  0
  -56.7949   48.0563  -15.6341 C   0  0  0  0  0  0  0  0  0  0  0  0
  -58.2183   48.3488  -15.3125 C   0  0  0  0  0  0  0  0  0  0  0  0
  -53.3776   48.7287  -19.1781 N   0  0  0  0  0  0  0  0  0  0  0  0
  -56.2630   48.6698  -16.8047 N   0  0  0  0  0  0  0  0  0  0  0  0
  -51.8242   51.4525  -19.2446 O   0  0  0  0  0  0  0  0  0  0  0  0
  -54.1557   47.6923  -16.8680 O   0  0  0  0  0  0  0  0  0  0  0  0
  -58.6247   49.5809  -15.7982 O   0  0  0  0  0  0  0  0  0  0  0  0
  1  2  1  0
  3  4  1  0
  5  6  1  0
  2  7  1  6
  3  7  1  6
  4  8  1  0
  5  8  1  6
  1  9  1  1
  4 10  2  0
  6 11  1  6
M  END
$$$$
