6YR2_T1C_BBB_1001
     RDKit          3D

 42 45  0  0  0  0  0  0  0  0999 V2000
   48.5816    5.6267   16.2960 C   0  0  0  0  0  0  0  0  0  0  0  0
   47.0480    5.5040   16.4846 C   0  0  1  0  0  0  0  0  0  0  0  0
   46.1929    5.3331   15.1989 C   0  0  0  0  0  0  0  0  0  0  0  0
   46.7989    4.2406   17.3469 C   0  0  0  0  0  0  0  0  0  0  0  0
   46.5519    6.7717   17.1572 N   0  0  0  0  0  0  0  0  0  0  0  0
   46.8368    8.1054   16.5339 C   0  0  0  0  0  0  0  0  0  0  0  0
   46.4312    9.1319   17.5447 C   0  0  0  0  0  0  0  0  0  0  0  0
   46.2795    8.8071   18.6767 O   0  0  0  0  0  0  0  0  0  0  0  0
   46.2542   10.3285   17.1793 N   0  0  0  0  0  0  0  0  0  0  0  0
   46.8028   11.4772   17.5977 C   0  0  0  0  0  0  0  0  0  0  0  0
   47.9328   11.6839   18.3884 C   0  0  0  0  0  0  0  0  0  0  0  0
   48.3968   13.0043   18.6403 C   0  0  0  0  0  0  0  0  0  0  0  0
   49.5425   13.3384   19.4748 N   0  0  1  0  0  0  0  0  0  0  0  0
   48.9723   13.2139   20.8346 C   0  0  0  0  0  0  0  0  0  0  0  0
   50.7229   12.5042   19.4971 C   0  0  0  0  0  0  0  0  0  0  0  0
   47.6291   14.0971   18.1336 C   0  0  0  0  0  0  0  0  0  0  0  0
   48.1071   15.5407   18.3109 C   0  0  0  0  0  0  0  0  0  0  0  0
   46.9567   16.5171   18.3602 C   0  0  1  0  0  0  0  0  0  0  0  0
   47.4954   17.9538   18.5519 C   0  0  0  0  0  0  0  0  0  0  0  0
   46.2659   18.8290   18.4490 C   0  0  1  0  0  0  0  0  0  0  0  0
   46.7269   20.2064   18.8398 C   0  0  2  0  0  0  0  0  0  0  0  0
   45.8392   20.8745   19.8372 N   0  0  1  0  0  0  0  0  0  0  0  0
   44.5173   21.4015   19.4524 C   0  0  0  0  0  0  0  0  0  0  0  0
   45.6124   19.9360   20.9327 C   0  0  0  0  0  0  0  0  0  0  0  0
   46.9468   21.1069   17.6839 C   0  0  0  0  0  0  0  0  0  0  0  0
   46.9581   22.3236   18.0969 O   0  0  0  0  0  0  0  0  0  0  0  0
   47.0904   20.7693   16.4352 C   0  0  0  0  0  0  0  0  0  0  0  0
   47.7240   21.6103   15.3831 C   0  0  0  0  0  0  0  0  0  0  0  0
   47.5665   21.3098   14.1623 O   0  0  0  0  0  0  0  0  0  0  0  0
   48.4564   22.6235   15.6603 N   0  0  0  0  0  0  0  0  0  0  0  0
   46.6511   19.5221   16.0881 C   0  0  0  0  0  0  0  0  0  0  0  0
   46.9633   18.9630   15.0146 O   0  0  0  0  0  0  0  0  0  0  0  0
   45.6873   18.8037   17.0571 C   0  0  2  0  0  0  0  0  0  0  0  0
   44.4369   19.4842   17.0238 O   0  0  0  0  0  0  0  0  0  0  0  0
   45.4325   17.3780   16.6418 C   0  0  0  0  0  0  0  0  0  0  0  0
   44.4974   17.2565   15.7350 O   0  0  0  0  0  0  0  0  0  0  0  0
   46.0437   16.2951   17.1728 C   0  0  0  0  0  0  0  0  0  0  0  0
   45.7527   15.0122   16.7650 C   0  0  0  0  0  0  0  0  0  0  0  0
   44.9116   14.6663   15.9122 O   0  0  0  0  0  0  0  0  0  0  0  0
   46.5273   13.8764   17.3180 C   0  0  0  0  0  0  0  0  0  0  0  0
   46.1257   12.5607   17.0787 C   0  0  0  0  0  0  0  0  0  0  0  0
   45.0896   12.2709   16.2929 O   0  0  0  0  0  0  0  0  0  0  0  0
  2  1  1  6
  2  3  1  0
  2  4  1  0
  2  5  1  0
  5  6  1  0
  6  7  1  0
  7  8  2  0
  7  9  1  0
  9 10  1  0
 10 11  2  0
 11 12  1  0
 12 13  1  0
 13 14  1  1
 13 15  1  0
 12 16  2  0
 16 17  1  0
 18 17  1  6
 18 19  1  0
 20 19  1  6
 20 21  1  0
 21 22  1  0
 22 23  1  6
 22 24  1  0
 21 25  1  6
 25 26  1  0
 25 27  2  0
 27 28  1  0
 28 29  2  0
 28 30  1  0
 27 31  1  0
 31 32  2  0
 20 33  1  0
 31 33  1  0
 33 34  1  1
 33 35  1  0
 35 36  1  0
 18 37  1  0
 35 37  2  0
 37 38  1  0
 38 39  2  0
 16 40  1  0
 38 40  1  0
 10 41  1  0
 40 41  2  0
 41 42  1  0
M  CHG  2  13   1  22   1
M  END
