7TB0_UD1_A_501
     RDKit          3D

 66 68  0  0  0  0  0  0  0  0999 V2000
   29.7962  -33.3286   43.2544 C   0  0  1  0  0  0  0  0  0  0  0  0
   29.0863  -33.3098   41.8889 C   0  0  1  0  0  0  0  0  0  0  0  0
   30.0218  -32.8325   40.7843 C   0  0  2  0  0  0  0  0  0  0  0  0
   30.6845  -31.5198   41.1704 C   0  0  1  0  0  0  0  0  0  0  0  0
   31.3173  -31.6323   42.5642 C   0  0  1  0  0  0  0  0  0  0  0  0
   31.9004  -30.3151   43.0352 C   0  0  0  0  0  0  0  0  0  0  0  0
   29.3228  -35.7059   41.5608 C   0  0  0  0  0  0  0  0  0  0  0  0
   30.4538  -35.7774   42.5531 C   0  0  0  0  0  0  0  0  0  0  0  0
   28.5550  -34.6271   41.6222 N   0  0  0  0  0  0  0  0  0  0  0  0
   30.7952  -34.3198   43.1617 O   0  0  0  0  0  0  0  0  0  0  0  0
   29.3010  -32.7691   39.5394 O   0  0  0  0  0  0  0  0  0  0  0  0
   31.7364  -31.2042   40.2562 O   0  0  0  0  0  0  0  0  0  0  0  0
   30.3253  -32.0378   43.5265 O   0  0  0  0  0  0  0  0  0  0  0  0
   33.3297  -30.3325   43.2102 O   0  0  0  0  0  0  0  0  0  0  0  0
   29.1601  -36.5536   40.6594 O   0  0  0  0  0  0  0  0  0  0  0  0
   30.4578  -33.6779   41.5638 N   0  0  0  0  0  4  0  0  0  0  0  0
   29.3437  -33.9800   40.7833 C   0  0  0  0  0  0  0  0  0  0  0  0
   28.7685  -35.2112   41.0376 N   0  0  0  0  0  4  0  0  0  0  0  0
   29.2116  -36.1627   41.9302 C   0  0  0  0  0  0  0  0  0  0  0  0
   30.3548  -35.7674   42.6976 C   0  0  0  0  0  0  0  0  0  0  0  0
   30.9245  -34.5841   42.4796 C   0  0  0  0  0  0  0  0  0  0  0  0
   28.9320  -33.2167   39.9303 O   0  0  0  0  0  0  0  0  0  0  0  0
   28.6242  -37.2463   42.0361 O   0  0  0  0  0  0  0  0  0  0  0  0
   31.1545  -32.4093   41.2608 C   0  0  1  0  0  0  0  0  0  0  0  0
   30.6586  -31.1984   42.0134 C   0  0  2  0  0  0  0  0  0  0  0  0
   30.8511  -30.0896   41.1214 O   0  0  0  0  0  0  0  0  0  0  0  0
   31.7333  -31.0725   43.0426 C   0  0  1  0  0  0  0  0  0  0  0  0
   33.0068  -31.4106   42.2512 C   0  0  2  0  0  0  0  0  0  0  0  0
   32.5618  -32.5187   41.4519 O   0  0  0  0  0  0  0  0  0  0  0  0
   31.6902  -29.6939   43.3271 O   0  0  0  0  0  0  0  0  0  0  0  0
   34.1849  -31.9131   43.0749 C   0  0  0  0  0  0  0  0  0  0  0  0
   33.6573  -32.7513   44.1127 O   0  0  0  0  0  0  0  0  0  0  0  0
   33.9192  -34.3514   44.1856 P   0  0  2  0  0  5  0  0  0  0  0  0
   33.2366  -35.0169   45.3352 O   0  0  0  0  0  0  0  0  0  0  0  0
   35.3822  -34.5762   44.0749 O   0  0  0  0  0  0  0  0  0  0  0  0
   33.1970  -34.8028   42.8295 O   0  0  0  0  0  0  0  0  0  0  0  0
   31.9551  -34.1574   42.0527 P   0  0  1  0  0  5  0  0  0  0  0  0
   31.5944  -34.9053   40.8211 O   0  0  0  0  0  0  0  0  0  0  0  0
   32.1942  -32.6802   41.9501 O   0  0  0  0  0  0  0  0  0  0  0  0
   29.1371  -33.5601   44.0649 H   0  0  0  0  0  0  0  0  0  0  0  0
   28.2765  -32.6109   41.9143 H   0  0  0  0  0  0  0  0  0  0  0  0
   30.8203  -33.5319   40.6499 H   0  0  0  0  0  0  0  0  0  0  0  0
   29.9297  -30.7616   41.1551 H   0  0  0  0  0  0  0  0  0  0  0  0
   32.1017  -32.3559   42.4868 H   0  0  0  0  0  0  0  0  0  0  0  0
   31.4504  -30.0650   43.9732 H   0  0  0  0  0  0  0  0  0  0  0  0
   31.6924  -29.5955   42.2713 H   0  0  0  0  0  0  0  0  0  0  0  0
   30.3903  -34.9486   43.2267 H   0  0  0  0  0  0  0  0  0  0  0  0
   31.3879  -35.7429   42.0323 H   0  0  0  0  0  0  0  0  0  0  0  0
   30.3867  -36.6915   43.1051 H   0  0  0  0  0  0  0  0  0  0  0  0
   27.5858  -34.7270   41.4808 H   0  0  0  0  0  0  0  0  0  0  0  0
   28.5660  -32.1419   39.6230 H   0  0  0  0  0  0  0  0  0  0  0  0
   32.4095  -31.9020   40.2844 H   0  0  0  0  0  0  0  0  0  0  0  0
   33.5635  -30.9754   43.8978 H   0  0  0  0  0  0  0  0  0  0  0  0
   27.9562  -35.4314   40.5268 H   0  0  0  0  0  0  0  0  0  0  0  0
   30.7363  -36.3993   43.4187 H   0  0  0  0  0  0  0  0  0  0  0  0
   31.7619  -34.3361   43.0294 H   0  0  0  0  0  0  0  0  0  0  0  0
   30.9225  -32.2460   40.2292 H   0  0  0  0  0  0  0  0  0  0  0  0
   29.6542  -31.2444   42.3791 H   0  0  0  0  0  0  0  0  0  0  0  0
   31.7700  -30.0801   40.8111 H   0  0  0  0  0  0  0  0  0  0  0  0
   31.6641  -31.6688   43.9283 H   0  0  0  0  0  0  0  0  0  0  0  0
   33.3692  -30.5347   41.7547 H   0  0  0  0  0  0  0  0  0  0  0  0
   31.7554  -29.1910   42.5003 H   0  0  0  0  0  0  0  0  0  0  0  0
   34.7099  -31.0857   43.5047 H   0  0  0  0  0  0  0  0  0  0  0  0
   34.8696  -32.4592   42.4602 H   0  0  0  0  0  0  0  0  0  0  0  0
   35.8149  -34.3014   44.8984 H   0  0  0  0  0  0  0  0  0  0  0  0
   32.4192  -32.3275   42.8253 H   0  0  0  0  0  0  0  0  0  0  0  0
  1  2  1  0
  2  3  1  0
  3  4  1  0
  4  5  1  0
  5  6  1  0
  7  8  1  0
  2  9  1  0
  7  9  1  0
  1 10  1  0
  3 11  1  0
  4 12  1  0
  1 13  1  0
  5 13  1  0
  6 14  1  0
  7 15  2  0
 16 17  4  0
 17 18  4  0
 18 19  4  0
 19 20  4  0
 16 21  4  0
 20 21  4  0
 17 22  2  0
 19 23  2  0
 24 16  1  0
 24 25  1  0
 25 26  1  0
 25 27  1  0
 27 28  1  0
 24 29  1  0
 28 29  1  0
 27 30  1  0
 28 31  1  0
 31 32  1  0
 33 32  1  1
 33 34  2  0
 33 35  1  0
 33 36  1  0
 37 10  1  1
 36 37  1  0
 37 38  2  0
 37 39  1  0
  1 40  1  1
  2 41  1  1
  3 42  1  6
  4 43  1  1
  5 44  1  6
  6 45  1  0
  6 46  1  0
  8 47  1  0
  8 48  1  0
  8 49  1  0
  9 50  1  0
 11 51  1  0
 12 52  1  0
 14 53  1  0
 18 54  1  0
 20 55  1  0
 21 56  1  0
 24 57  1  6
 25 58  1  1
 26 59  1  0
 27 60  1  1
 28 61  1  6
 30 62  1  0
 31 63  1  0
 31 64  1  0
 35 65  1  0
 39 66  1  0
M  CHG  2  16   1  18   1
M  END
