7XJN_NSD_C_401
     RDKit          3D

  9  8  0  0  0  0  0  0  0  0999 V2000
    1.0570    8.7000   34.1170 C   0  0  0  0  0  0  0  0  0  0  0  0
    2.1620    9.5320   33.5720 N   0  0  0  0  0  0  0  0  0  0  0  0
    0.3250    8.0140   32.9770 C   0  0  0  0  0  0  0  0  0  0  0  0
   -1.4710    6.5030   32.2750 N   0  0  0  0  0  0  0  0  0  0  0  0
   -0.9460    7.3000   33.3890 C   0  0  0  0  0  0  0  0  0  0  0  0
   -6.3840    6.9060   32.4040 N   0  0  0  0  0  0  0  0  0  0  0  0
   -2.7480    5.8460   32.5600 C   0  0  0  0  0  0  0  0  0  0  0  0
   -3.9240    6.7830   32.4060 C   0  0  0  0  0  0  0  0  0  0  0  0
   -5.2310    6.0130   32.5070 C   0  0  0  0  0  0  0  0  0  0  0  0
  1  2  1  0
  1  3  1  0
  4  5  1  0
  3  5  1  0
  4  7  1  0
  7  8  1  0
  6  9  1  0
  8  9  1  0
M  END
$$$$
