7XJN_NSD_A_401
     RDKit          3D

 26 25  0  0  0  0  0  0  0  0999 V2000
   -0.5745    0.3705   -3.1188 C   0  0  0  0  0  0  0  0  0  0  0  0
    0.5489    0.9497   -2.3874 N   0  0  0  0  0  0  0  0  0  0  0  0
   -1.1884   -0.8061   -2.3467 C   0  0  0  0  0  0  0  0  0  0  0  0
   -1.0765    0.2711   -0.1072 N   0  0  0  0  0  0  0  0  0  0  0  0
   -1.9628   -0.3636   -1.0946 C   0  0  0  0  0  0  0  0  0  0  0  0
    2.2784   -0.4172    3.4362 N   0  0  0  0  0  0  0  0  0  0  0  0
   -0.4648   -0.7209    0.7867 C   0  0  0  0  0  0  0  0  0  0  0  0
    0.5925   -0.0453    1.6634 C   0  0  0  0  0  0  0  0  0  0  0  0
    1.2690   -1.0593    2.5971 C   0  0  0  0  0  0  0  0  0  0  0  0
   -1.3476    1.1503   -3.2947 H   0  0  0  0  0  0  0  0  0  0  0  0
   -0.2233    0.0094   -4.1113 H   0  0  0  0  0  0  0  0  0  0  0  0
    1.3291    0.2528   -2.3785 H   0  0  0  0  0  0  0  0  0  0  0  0
    0.8921    1.7741   -2.9314 H   0  0  0  0  0  0  0  0  0  0  0  0
   -0.3982   -1.5399   -2.0815 H   0  0  0  0  0  0  0  0  0  0  0  0
   -1.9004   -1.3280   -3.0222 H   0  0  0  0  0  0  0  0  0  0  0  0
   -1.6630    0.9081    0.4824 H   0  0  0  0  0  0  0  0  0  0  0  0
   -2.4943   -1.2387   -0.6560 H   0  0  0  0  0  0  0  0  0  0  0  0
   -2.7485    0.3611   -1.4052 H   0  0  0  0  0  0  0  0  0  0  0  0
    2.9925    0.0348    2.8197 H   0  0  0  0  0  0  0  0  0  0  0  0
    1.8205    0.3366    3.9987 H   0  0  0  0  0  0  0  0  0  0  0  0
   -1.2443   -1.1836    1.4341 H   0  0  0  0  0  0  0  0  0  0  0  0
    0.0274   -1.5228    0.1947 H   0  0  0  0  0  0  0  0  0  0  0  0
    1.3595    0.4254    1.0099 H   0  0  0  0  0  0  0  0  0  0  0  0
    0.1105    0.7513    2.2715 H   0  0  0  0  0  0  0  0  0  0  0  0
    1.7551   -1.8582    1.9957 H   0  0  0  0  0  0  0  0  0  0  0  0
    0.5060   -1.5355    3.2507 H   0  0  0  0  0  0  0  0  0  0  0  0
  1  2  1  0
  1  3  1  0
  4  5  1  0
  3  5  1  0
  4  7  1  0
  7  8  1  0
  6  9  1  0
  8  9  1  0
  1 10  1  0
  1 11  1  0
  2 12  1  0
  2 13  1  0
  3 14  1  0
  3 15  1  0
  4 16  1  0
  5 17  1  0
  5 18  1  0
  6 19  1  0
  6 20  1  0
  7 21  1  0
  7 22  1  0
  8 23  1  0
  8 24  1  0
  9 25  1  0
  9 26  1  0
M  END
