1V48_HA1_A_290
     RDKit          3D

 36 37  0  0  0  0  0  0  0  0999 V2000
   74.2135   46.0021   49.1448 N   0  0  0  0  0  0  0  0  0  0  0  0
   74.6606   47.2842   49.1338 C   0  0  0  0  0  0  0  0  0  0  0  0
   74.9838   47.7320   47.8885 N   0  0  0  0  0  0  0  0  0  0  0  0
   74.7220   46.6626   47.1130 C   0  0  0  0  0  0  0  0  0  0  0  0
   74.8882   46.5037   45.7452 C   0  0  0  0  0  0  0  0  0  0  0  0
   75.3155   47.4460   45.0264 O   0  0  0  0  0  0  0  0  0  0  0  0
   74.5778   45.2882   45.1988 N   0  0  0  0  0  0  0  0  0  0  0  0
   74.1217   44.2522   45.9820 C   0  0  0  0  0  0  0  0  0  0  0  0
   73.8117   42.9898   45.3924 N   0  0  0  0  0  0  0  0  0  0  0  0
   73.9662   44.4231   47.3309 N   0  0  0  0  0  0  0  0  0  0  0  0
   74.2671   45.6331   47.8596 C   0  0  0  0  0  0  0  0  0  0  0  0
   73.8702   45.1885   50.3105 C   0  0  2  0  0  0  0  0  0  0  0  0
   73.8572   43.6972   49.9528 C   0  0  2  0  0  0  0  0  0  0  0  0
   74.7736   42.8776   50.8752 C   0  0  1  0  0  0  0  0  0  0  0  0
   74.0601   42.3335   52.1281 C   0  0  2  0  0  0  0  0  0  0  0  0
   74.4802   42.9453   53.4812 C   0  0  2  0  0  0  0  0  0  0  0  0
   73.4747   43.8011   53.8934 F   0  0  0  0  0  0  0  0  0  0  0  0
   75.6352   43.6920   53.3405 F   0  0  0  0  0  0  0  0  0  0  0  0
   74.7229   41.6960   54.7946 P   0  0  1  0  0  5  0  0  0  0  0  0
   75.9978   42.1591   55.8083 O   0  0  0  0  0  0  0  0  0  0  0  0
   73.4578   41.5291   55.6072 O   0  0  0  0  0  0  0  0  0  0  0  0
   75.1114   40.2142   54.0757 O   0  0  0  0  0  0  0  0  0  0  0  0
   74.7682   47.8876   50.0259 H   0  0  0  0  0  0  0  0  0  0  0  0
   74.6947   45.1449   44.1700 H   0  0  0  0  0  0  0  0  0  0  0  0
   73.6109   42.1617   45.9958 H   0  0  0  0  0  0  0  0  0  0  0  0
   73.7830   42.8783   44.3547 H   0  0  0  0  0  0  0  0  0  0  0  0
   72.8817   45.4956   50.7169 H   0  0  0  0  0  0  0  0  0  0  0  0
   74.6246   45.3613   51.1081 H   0  0  0  0  0  0  0  0  0  0  0  0
   74.1964   43.5830   48.9004 H   0  0  0  0  0  0  0  0  0  0  0  0
   72.8122   43.3308   50.0252 H   0  0  0  0  0  0  0  0  0  0  0  0
   75.1567   42.0026   50.3055 H   0  0  0  0  0  0  0  0  0  0  0  0
   75.6590   43.4753   51.1689 H   0  0  0  0  0  0  0  0  0  0  0  0
   74.2344   41.2363   52.1714 H   0  0  0  0  0  0  0  0  0  0  0  0
   72.9643   42.4745   52.0028 H   0  0  0  0  0  0  0  0  0  0  0  0
   75.5965   42.7871   56.4601 H   0  0  0  0  0  0  0  0  0  0  0  0
   74.2382   39.7983   53.8617 H   0  0  0  0  0  0  0  0  0  0  0  0
  1  2  1  0
  2  3  2  0
  3  4  1  0
  4  5  1  0
  5  6  2  0
  5  7  1  0
  7  8  1  0
  8  9  1  0
  8 10  2  0
  1 11  1  0
  4 11  2  0
 10 11  1  0
  1 12  1  0
 12 13  1  0
 13 14  1  0
 14 15  1  0
 15 16  1  0
 16 17  1  1
 16 18  1  0
 16 19  1  0
 19 20  1  1
 19 21  2  0
 19 22  1  0
  2 23  1  0
  7 24  1  0
  9 25  1  0
  9 26  1  0
 12 27  1  1
 12 28  1  0
 13 29  1  6
 13 30  1  0
 14 31  1  6
 14 32  1  0
 15 33  1  1
 15 34  1  0
 20 35  1  0
 22 36  1  0
M  END
