7VJT_7IJ_A_1801
     RDKit          3D

 46 50  0  0  0  0  0  0  0  0999 V2000
   -9.5559  -23.8321  156.2885 C   0  0  0  0  0  0  0  0  0  0  0  0
   -9.5330  -25.1071  156.8629 C   0  0  0  0  0  0  0  0  0  0  0  0
   -9.5537  -24.1222  159.0820 C   0  0  0  0  0  0  0  0  0  0  0  0
   -9.6932  -18.9978  154.1473 C   0  0  0  0  0  0  0  0  0  0  0  0
   -9.7081  -17.6096  154.2578 C   0  0  0  0  0  0  0  0  0  0  0  0
   -9.6340  -20.5132  158.8389 C   0  0  0  0  0  0  0  0  0  0  0  0
   -9.3564  -17.0266  158.0241 C   0  0  2  0  0  0  0  0  0  0  0  0
   -9.5309  -25.2564  158.2557 C   0  0  0  0  0  0  0  0  0  0  0  0
   -9.5914  -20.2941  157.4445 C   0  0  0  0  0  0  0  0  0  0  0  0
   -9.6394  -19.7506  155.3091 C   0  0  0  0  0  0  0  0  0  0  0  0
   -9.5933  -21.4016  156.6138 C   0  0  0  0  0  0  0  0  0  0  0  0
   -9.5523  -17.7564  156.7140 C   0  0  0  0  0  0  0  0  0  0  0  0
   -9.6380  -16.9826  155.5134 C   0  0  0  0  0  0  0  0  0  0  0  0
   -9.5843  -15.5749  157.8584 N   0  0  0  0  0  0  0  0  0  0  0  0
   -9.5776  -22.8422  158.5176 C   0  0  0  0  0  0  0  0  0  0  0  0
  -11.0232  -15.2507  157.7788 C   0  0  2  0  0  0  0  0  0  0  0  0
  -11.2072  -13.7662  157.4516 C   0  0  2  0  0  0  0  0  0  0  0  0
  -10.5287  -12.8996  158.5167 C   0  0  1  0  0  0  0  0  0  0  0  0
   -9.0648  -13.3119  158.6998 C   0  0  2  0  0  0  0  0  0  0  0  0
   -8.9530  -14.8191  158.9596 C   0  0  1  0  0  0  0  0  0  0  0  0
   -9.5980  -19.1777  156.5788 C   0  0  0  0  0  0  0  0  0  0  0  0
   -9.5751  -22.6996  157.1139 C   0  0  0  0  0  0  0  0  0  0  0  0
   -9.6257  -21.0594  155.3514 O   0  0  0  0  0  0  0  0  0  0  0  0
   -9.6133  -21.7648  159.3049 O   0  0  0  0  0  0  0  0  0  0  0  0
   -9.7227  -19.5761  159.6639 O   0  0  0  0  0  0  0  0  0  0  0  0
   -9.6481  -15.5841  155.5213 O   0  0  0  0  0  0  0  0  0  0  0  0
   -9.5071  -26.5350  158.8082 O   0  0  0  0  0  0  0  0  0  0  0  0
   -9.5558  -23.7328  155.2099 H   0  0  0  0  0  0  0  0  0  0  0  0
   -9.5164  -25.9818  156.2251 H   0  0  0  0  0  0  0  0  0  0  0  0
   -9.5558  -24.2354  160.1590 H   0  0  0  0  0  0  0  0  0  0  0  0
   -9.7332  -19.4764  153.1773 H   0  0  0  0  0  0  0  0  0  0  0  0
   -9.7638  -17.0085  153.3589 H   0  0  0  0  0  0  0  0  0  0  0  0
   -8.3047  -17.2134  158.3356 H   0  0  0  0  0  0  0  0  0  0  0  0
   -9.9222  -17.4460  158.8629 H   0  0  0  0  0  0  0  0  0  0  0  0
  -11.5339  -15.4729  158.7411 H   0  0  0  0  0  0  0  0  0  0  0  0
  -11.5109  -15.8434  156.9749 H   0  0  0  0  0  0  0  0  0  0  0  0
  -12.2913  -13.5247  157.4132 H   0  0  0  0  0  0  0  0  0  0  0  0
  -10.7659  -13.5484  156.4542 H   0  0  0  0  0  0  0  0  0  0  0  0
  -10.5781  -11.8319  158.2129 H   0  0  0  0  0  0  0  0  0  0  0  0
  -11.0684  -13.0076  159.4833 H   0  0  0  0  0  0  0  0  0  0  0  0
   -8.6270  -12.7535  159.5550 H   0  0  0  0  0  0  0  0  0  0  0  0
   -8.4889  -13.0523  157.7843 H   0  0  0  0  0  0  0  0  0  0  0  0
   -9.4253  -15.0729  159.9363 H   0  0  0  0  0  0  0  0  0  0  0  0
   -7.8712  -15.0694  159.0249 H   0  0  0  0  0  0  0  0  0  0  0  0
   -9.6677  -15.0206  156.3600 H   0  0  0  0  0  0  0  0  0  0  0  0
   -9.1138  -26.7080  159.7259 H   0  0  0  0  0  0  0  0  0  0  0  0
  1  2  2  0
  4  5  1  0
  3  8  2  0
  2  8  1  0
  6  9  1  0
  4 10  2  0
  9 11  2  0
  7 12  1  0
 12 13  1  0
  5 13  2  0
  7 14  1  0
  3 15  1  0
 14 16  1  0
 16 17  1  0
 17 18  1  0
 18 19  1  0
 14 20  1  0
 19 20  1  0
  9 21  1  0
 10 21  1  0
 12 21  2  0
 15 22  2  0
  1 22  1  0
 11 22  1  0
 11 23  1  0
 10 23  1  0
 15 24  1  0
  6 24  1  0
  6 25  2  0
 13 26  1  0
  8 27  1  0
  1 28  1  0
  2 29  1  0
  3 30  1  0
  4 31  1  0
  5 32  1  0
  7 33  1  1
  7 34  1  0
 16 35  1  1
 16 36  1  0
 17 37  1  6
 17 38  1  0
 18 39  1  6
 18 40  1  0
 19 41  1  1
 19 42  1  0
 20 43  1  1
 20 44  1  0
 26 45  1  0
 27 46  1  0
M  END
