6ZK5_IMH_A_402
     RDKit          3D

 19 21  0  0  0  0  0  0  0  0999 V2000
  -11.1860   -7.4700   -2.9370 O   0  0  0  0  0  0  0  0  0  0  0  0
  -11.8870   -7.0240   -1.7780 C   0  0  0  0  0  0  0  0  0  0  0  0
  -13.3870   -7.0610   -2.0340 C   0  0  1  0  0  0  0  0  0  0  0  0
  -13.8610   -8.3120   -2.6610 N   0  0  0  0  0  0  0  0  0  0  0  0
  -14.2610   -6.9700   -0.7830 C   0  0  1  0  0  0  0  0  0  0  0  0
  -15.4350   -6.1980   -1.0090 O   0  0  0  0  0  0  0  0  0  0  0  0
  -14.6080   -8.4230   -0.4020 C   0  0  1  0  0  0  0  0  0  0  0  0
  -16.0000   -8.5880   -0.1580 O   0  0  0  0  0  0  0  0  0  0  0  0
  -14.2010   -9.2790   -1.6170 C   0  0  2  0  0  0  0  0  0  0  0  0
  -13.0430  -10.2010   -1.4000 C   0  0  0  0  0  0  0  0  0  0  0  0
  -12.3960  -10.4960   -0.2350 C   0  0  0  0  0  0  0  0  0  0  0  0
  -11.2970  -11.2700   -0.4890 N   0  0  0  0  0  0  0  0  0  0  0  0
  -11.2170  -11.4950   -1.8420 C   0  0  0  0  0  0  0  0  0  0  0  0
  -10.3550  -12.1750   -2.7170 C   0  0  0  0  0  0  0  0  0  0  0  0
   -9.2790  -12.7110   -2.2320 O   0  0  0  0  0  0  0  0  0  0  0  0
  -10.6040  -12.2570   -4.0490 N   0  0  0  0  0  0  0  0  0  0  0  0
  -11.7070  -11.6450   -4.5460 C   0  0  0  0  0  0  0  0  0  0  0  0
  -12.5710  -10.9290   -3.7850 N   0  0  0  0  0  0  0  0  0  0  0  0
  -12.3100  -10.8590   -2.4550 C   0  0  0  0  0  0  0  0  0  0  0  0
  1  2  1  0
  3  2  1  1
  3  4  1  0
  3  5  1  0
  5  6  1  6
  5  7  1  0
  7  8  1  6
  4  9  1  0
  7  9  1  0
  9 10  1  1
 10 11  2  0
 11 12  1  0
 12 13  1  0
 13 14  1  0
 14 15  1  0
 14 16  2  0
 16 17  1  0
 17 18  2  0
 10 19  1  0
 13 19  2  0
 18 19  1  0
M  END
$$$$
6ZK5_IMH_B_401
     RDKit          3D

 19 21  0  0  0  0  0  0  0  0999 V2000
   12.9040    7.6400  -16.3800 O   0  0  0  0  0  0  0  0  0  0  0  0
   14.2640    7.4450  -16.0300 C   0  0  0  0  0  0  0  0  0  0  0  0
   15.0950    7.2830  -17.2790 C   0  0  1  0  0  0  0  0  0  0  0  0
   14.7900    8.2730  -18.3270 N   0  0  0  0  0  0  0  0  0  0  0  0
   16.6010    7.4620  -17.0750 C   0  0  1  0  0  0  0  0  0  0  0  0
   17.3460    6.5520  -17.8810 O   0  0  0  0  0  0  0  0  0  0  0  0
   16.9050    8.9270  -17.4450 C   0  0  1  0  0  0  0  0  0  0  0  0
   18.0020    9.0470  -18.3420 O   0  0  0  0  0  0  0  0  0  0  0  0
   15.6390    9.4470  -18.1480 C   0  0  2  0  0  0  0  0  0  0  0  0
   14.8630   10.4890  -17.3850 C   0  0  0  0  0  0  0  0  0  0  0  0
   15.2140   11.1450  -16.2410 C   0  0  0  0  0  0  0  0  0  0  0  0
   14.1820   11.9290  -15.8110 N   0  0  0  0  0  0  0  0  0  0  0  0
   13.1330   11.7980  -16.6870 C   0  0  0  0  0  0  0  0  0  0  0  0
   11.8480   12.3340  -16.8250 C   0  0  0  0  0  0  0  0  0  0  0  0
   11.4130   13.1130  -15.8910 O   0  0  0  0  0  0  0  0  0  0  0  0
   11.0520   12.0420  -17.9000 N   0  0  0  0  0  0  0  0  0  0  0  0
   11.5260   11.1990  -18.8460 C   0  0  0  0  0  0  0  0  0  0  0  0
   12.7460   10.6120  -18.7770 N   0  0  0  0  0  0  0  0  0  0  0  0
   13.5220   10.9120  -17.7060 C   0  0  0  0  0  0  0  0  0  0  0  0
  1  2  1  0
  3  2  1  1
  3  4  1  0
  3  5  1  0
  5  6  1  6
  5  7  1  0
  7  8  1  6
  4  9  1  0
  7  9  1  0
  9 10  1  1
 10 11  2  0
 11 12  1  0
 12 13  1  0
 13 14  1  0
 14 15  1  0
 14 16  2  0
 16 17  1  0
 17 18  2  0
 10 19  1  0
 13 19  2  0
 18 19  1  0
M  END
$$$$
