8AQL_PLG_B_601
     RDKit          3D

 35 35  0  0  0  0  0  0  0  0999 V2000
    1.6610    2.1794    0.1741 N   0  0  0  0  0  0  0  0  0  0  0  0
    0.6993    2.2632    1.1281 C   0  0  0  0  0  0  0  0  0  0  0  0
    0.3311    3.6166    1.6570 C   0  0  0  0  0  0  0  0  0  0  0  0
    0.0793    1.0879    1.5994 C   0  0  0  0  0  0  0  0  0  0  0  0
   -0.9140    1.1420    2.5830 O   0  0  0  0  0  0  0  0  0  0  0  0
    0.4675   -0.1627    1.0680 C   0  0  0  0  0  0  0  0  0  0  0  0
   -0.1806   -1.4301    1.5937 C   0  0  0  0  0  0  0  0  0  0  0  0
    1.4493   -0.2038    0.0431 C   0  0  0  0  0  0  0  0  0  0  0  0
    2.0469    0.9975   -0.3641 C   0  0  0  0  0  0  0  0  0  0  0  0
    1.9193   -1.4931   -0.6062 C   0  0  0  0  0  0  0  0  0  0  0  0
    2.0251   -1.3579   -2.0085 O   0  0  0  0  0  0  0  0  0  0  0  0
    0.4830   -1.5474   -2.7222 P   0  0  0  0  0  5  0  0  0  0  0  0
   -0.4286   -0.4175   -2.2998 O   0  0  0  0  0  0  0  0  0  0  0  0
    0.6522   -1.5092   -4.4049 O   0  0  0  0  0  0  0  0  0  0  0  0
   -0.2067   -3.0272   -2.2728 O   0  0  0  0  0  0  0  0  0  0  0  0
   -3.2815   -1.8590   -0.4540 C   0  0  0  0  0  0  0  0  0  0  0  0
   -3.2787   -1.3957   -1.6257 O   0  0  0  0  0  0  0  0  0  0  0  0
   -4.0886   -2.9472   -0.1383 O   0  0  0  0  0  0  0  0  0  0  0  0
   -2.3824   -1.2734    0.5872 C   0  0  0  0  0  0  0  0  0  0  0  0
   -1.1057   -1.9975    0.6029 N   0  0  0  0  0  0  0  0  0  0  0  0
    0.9324    4.4070    1.1593 H   0  0  0  0  0  0  0  0  0  0  0  0
    0.5292    3.6633    2.7484 H   0  0  0  0  0  0  0  0  0  0  0  0
   -0.7426    3.8203    1.4606 H   0  0  0  0  0  0  0  0  0  0  0  0
   -1.2368    2.0058    2.9994 H   0  0  0  0  0  0  0  0  0  0  0  0
    0.6185   -2.1686    1.8215 H   0  0  0  0  0  0  0  0  0  0  0  0
   -0.6962   -1.2703    2.5664 H   0  0  0  0  0  0  0  0  0  0  0  0
    2.8203    0.9964   -1.1216 H   0  0  0  0  0  0  0  0  0  0  0  0
    1.3196   -2.3838   -0.3298 H   0  0  0  0  0  0  0  0  0  0  0  0
    2.9357   -1.7037   -0.2129 H   0  0  0  0  0  0  0  0  0  0  0  0
    1.2995   -2.2303   -4.6092 H   0  0  0  0  0  0  0  0  0  0  0  0
    0.4615   -3.7079   -2.5391 H   0  0  0  0  0  0  0  0  0  0  0  0
   -4.6907   -3.3670   -0.8365 H   0  0  0  0  0  0  0  0  0  0  0  0
   -2.8835   -1.3432    1.5785 H   0  0  0  0  0  0  0  0  0  0  0  0
   -2.2150   -0.2001    0.3503 H   0  0  0  0  0  0  0  0  0  0  0  0
   -1.3020   -2.9853    0.8912 H   0  0  0  0  0  0  0  0  0  0  0  0
  1  2  2  0
  2  3  1  0
  2  4  1  0
  4  5  1  0
  4  6  2  0
  6  7  1  0
  6  8  1  0
  1  9  1  0
  8  9  2  0
  8 10  1  0
 10 11  1  0
 11 12  1  0
 12 13  2  0
 12 14  1  0
 12 15  1  0
 16 17  2  0
 16 18  1  0
 16 19  1  0
  7 20  1  0
 19 20  1  0
  3 21  1  0
  3 22  1  0
  3 23  1  0
  5 24  1  0
  7 25  1  0
  7 26  1  0
  9 27  1  0
 10 28  1  0
 10 29  1  0
 14 30  1  0
 15 31  1  0
 18 32  1  0
 19 33  1  0
 19 34  1  0
 20 35  1  0
M  END
