8AQL_PLG_B_601
     RDKit          3D

 20 20  0  0  0  0  0  0  0  0999 V2000
    5.2870   55.0080    9.4140 N   0  0  0  0  0  0  0  0  0  0  0  0
    4.7540   55.4350    8.2670 C   0  0  0  0  0  0  0  0  0  0  0  0
    5.3800   56.6500    7.6380 C   0  0  0  0  0  0  0  0  0  0  0  0
    3.6510   54.7270    7.7240 C   0  0  0  0  0  0  0  0  0  0  0  0
    3.1210   55.1860    6.5340 O   0  0  0  0  0  0  0  0  0  0  0  0
    3.1370   53.6150    8.3500 C   0  0  0  0  0  0  0  0  0  0  0  0
    1.9640   52.7920    7.8430 C   0  0  0  0  0  0  0  0  0  0  0  0
    3.7050   53.2030    9.5260 C   0  0  0  0  0  0  0  0  0  0  0  0
    4.7780   53.9330   10.0320 C   0  0  0  0  0  0  0  0  0  0  0  0
    3.1730   52.0370   10.3580 C   0  0  0  0  0  0  0  0  0  0  0  0
    3.4930   50.7260   10.0190 O   0  0  0  0  0  0  0  0  0  0  0  0
    2.5800   49.5690   10.6320 P   0  0  0  0  0  0  0  0  0  0  0  0
    1.1810   49.7340   10.0060 O   0  0  0  0  0  0  0  0  0  0  0  0
    2.5220   49.7950   12.1250 O   0  0  0  0  0  0  0  0  0  0  0  0
    3.2170   48.2970   10.2380 O   0  0  0  0  0  0  0  0  0  0  0  0
   -0.3200   53.4860    5.0300 C   0  0  0  0  0  0  0  0  0  0  0  0
   -1.3130   53.1120    4.3430 O   0  0  0  0  0  0  0  0  0  0  0  0
    0.2380   54.5580    4.7130 O   0  0  0  0  0  0  0  0  0  0  0  0
    0.1680   52.6550    6.2050 C   0  0  0  0  0  0  0  0  0  0  0  0
    1.0180   53.4750    7.0280 N   0  0  0  0  0  0  0  0  0  0  0  0
  1  2  2  0
  2  3  1  0
  2  4  1  0
  4  5  1  0
  4  6  2  0
  6  7  1  0
  6  8  1  0
  1  9  1  0
  8  9  2  0
  8 10  1  0
 10 11  1  0
 11 12  1  0
 12 13  2  0
 12 14  1  0
 12 15  1  0
 16 17  2  0
 16 18  1  0
 16 19  1  0
  7 20  1  0
 19 20  1  0
M  END
$$$$
8AQL_PLG_A_601
     RDKit          3D

 20 20  0  0  0  0  0  0  0  0999 V2000
    2.5250   37.1410   29.5870 N   0  0  0  0  0  0  0  0  0  0  0  0
    3.0770   36.0890   30.1900 C   0  0  0  0  0  0  0  0  0  0  0  0
    2.4130   35.5930   31.4770 C   0  0  0  0  0  0  0  0  0  0  0  0
    4.2310   35.5290   29.5810 C   0  0  0  0  0  0  0  0  0  0  0  0
    4.8240   34.4580   30.2280 O   0  0  0  0  0  0  0  0  0  0  0  0
    4.7810   36.0520   28.4150 C   0  0  0  0  0  0  0  0  0  0  0  0
    6.0210   35.5080   27.7110 C   0  0  0  0  0  0  0  0  0  0  0  0
    4.1560   37.1270   27.8440 C   0  0  0  0  0  0  0  0  0  0  0  0
    3.0110   37.6340   28.4410 C   0  0  0  0  0  0  0  0  0  0  0  0
    4.6460   37.8380   26.5980 C   0  0  0  0  0  0  0  0  0  0  0  0
    4.5790   37.1970   25.3870 O   0  0  0  0  0  0  0  0  0  0  0  0
    5.4470   37.7640   24.1640 P   0  0  0  0  0  0  0  0  0  0  0  0
    4.8280   37.2460   22.8960 O   0  0  0  0  0  0  0  0  0  0  0  0
    5.4740   39.2810   24.1900 O   0  0  0  0  0  0  0  0  0  0  0  0
    6.8680   37.2570   24.4580 O   0  0  0  0  0  0  0  0  0  0  0  0
    8.3390   32.8570   28.8860 C   0  0  0  0  0  0  0  0  0  0  0  0
    9.4280   32.2320   28.6420 O   0  0  0  0  0  0  0  0  0  0  0  0
    7.7600   32.6610   29.9700 O   0  0  0  0  0  0  0  0  0  0  0  0
    7.7550   33.8310   27.8770 C   0  0  0  0  0  0  0  0  0  0  0  0
    6.8790   34.7390   28.5700 N   0  0  0  0  0  0  0  0  0  0  0  0
  1  2  2  0
  2  3  1  0
  2  4  1  0
  4  5  1  0
  4  6  2  0
  6  7  1  0
  6  8  1  0
  1  9  1  0
  8  9  2  0
  8 10  1  0
 10 11  1  0
 11 12  1  0
 12 13  2  0
 12 14  1  0
 12 15  1  0
 16 17  2  0
 16 18  1  0
 16 19  1  0
  7 20  1  0
 19 20  1  0
M  END
$$$$
8AQL_PLG_D_602
     RDKit          3D

 20 20  0  0  0  0  0  0  0  0999 V2000
    0.8430   88.0170   38.2070 N   0  0  0  0  0  0  0  0  0  0  0  0
    1.4190   89.0980   37.6920 C   0  0  0  0  0  0  0  0  0  0  0  0
    0.8870   89.6120   36.3480 C   0  0  0  0  0  0  0  0  0  0  0  0
    2.4240   89.7160   38.4090 C   0  0  0  0  0  0  0  0  0  0  0  0
    3.0240   90.8290   37.8510 O   0  0  0  0  0  0  0  0  0  0  0  0
    2.8410   89.1860   39.6030 C   0  0  0  0  0  0  0  0  0  0  0  0
    3.9560   89.8670   40.3950 C   0  0  0  0  0  0  0  0  0  0  0  0
    2.2400   88.0540   40.1020 C   0  0  0  0  0  0  0  0  0  0  0  0
    1.2130   87.4810   39.3910 C   0  0  0  0  0  0  0  0  0  0  0  0
    2.6810   87.3860   41.4040 C   0  0  0  0  0  0  0  0  0  0  0  0
    2.3090   87.9660   42.5990 O   0  0  0  0  0  0  0  0  0  0  0  0
    3.1890   87.4810   43.8730 P   0  0  0  0  0  0  0  0  0  0  0  0
    3.2890   86.0080   43.8750 O   0  0  0  0  0  0  0  0  0  0  0  0
    2.4170   88.0240   45.0440 O   0  0  0  0  0  0  0  0  0  0  0  0
    4.5490   88.1460   43.7690 O   0  0  0  0  0  0  0  0  0  0  0  0
    6.3050   92.5690   39.4860 C   0  0  0  0  0  0  0  0  0  0  0  0
    5.8390   92.7000   38.3250 O   0  0  0  0  0  0  0  0  0  0  0  0
    7.2260   93.3270   39.8910 O   0  0  0  0  0  0  0  0  0  0  0  0
    5.7770   91.4630   40.3890 C   0  0  0  0  0  0  0  0  0  0  0  0
    4.8100   90.7090   39.6250 N   0  0  0  0  0  0  0  0  0  0  0  0
  1  2  2  0
  2  3  1  0
  2  4  1  0
  4  5  1  0
  4  6  2  0
  6  7  1  0
  6  8  1  0
  1  9  1  0
  8  9  2  0
  8 10  1  0
 10 11  1  0
 11 12  1  0
 12 13  2  0
 12 14  1  0
 12 15  1  0
 16 17  2  0
 16 18  1  0
 16 19  1  0
  7 20  1  0
 19 20  1  0
M  END
$$$$
8AQL_PLG_C_601
     RDKit          3D

 20 20  0  0  0  0  0  0  0  0999 V2000
    2.2760   70.3550   58.5570 N   0  0  0  0  0  0  0  0  0  0  0  0
    1.6030   69.9200   59.6390 C   0  0  0  0  0  0  0  0  0  0  0  0
    2.2150   68.7150   60.3490 C   0  0  0  0  0  0  0  0  0  0  0  0
    0.3970   70.5690   60.0200 C   0  0  0  0  0  0  0  0  0  0  0  0
   -0.2710   70.0800   61.1450 O   0  0  0  0  0  0  0  0  0  0  0  0
   -0.0690   71.6780   59.3190 C   0  0  0  0  0  0  0  0  0  0  0  0
   -1.3710   72.4240   59.6590 C   0  0  0  0  0  0  0  0  0  0  0  0
    0.6550   72.0670   58.2290 C   0  0  0  0  0  0  0  0  0  0  0  0
    1.8220   71.4160   57.8820 C   0  0  0  0  0  0  0  0  0  0  0  0
    0.2460   73.1960   57.2960 C   0  0  0  0  0  0  0  0  0  0  0  0
    0.2940   74.4660   57.8010 O   0  0  0  0  0  0  0  0  0  0  0  0
   -0.5830   75.6350   57.0530 P   0  0  0  0  0  0  0  0  0  0  0  0
   -0.5290   75.4220   55.5770 O   0  0  0  0  0  0  0  0  0  0  0  0
   -0.0540   76.9380   57.4680 O   0  0  0  0  0  0  0  0  0  0  0  0
   -1.9790   75.4760   57.5990 O   0  0  0  0  0  0  0  0  0  0  0  0
   -3.8340   71.7090   62.3520 C   0  0  0  0  0  0  0  0  0  0  0  0
   -3.2430   70.6540   62.7120 O   0  0  0  0  0  0  0  0  0  0  0  0
   -4.9170   72.0560   62.9080 O   0  0  0  0  0  0  0  0  0  0  0  0
   -3.2540   72.5310   61.2180 C   0  0  0  0  0  0  0  0  0  0  0  0
   -2.2070   71.7270   60.6100 N   0  0  0  0  0  0  0  0  0  0  0  0
  1  2  2  0
  2  3  1  0
  2  4  1  0
  4  5  1  0
  4  6  2  0
  6  7  1  0
  6  8  1  0
  1  9  1  0
  8  9  2  0
  8 10  1  0
 10 11  1  0
 11 12  1  0
 12 13  2  0
 12 14  1  0
 12 15  1  0
 16 17  2  0
 16 18  1  0
 16 19  1  0
  7 20  1  0
 19 20  1  0
M  END
$$$$
