
     RDKit          3D

 17 17  0  0  0  0  0  0  0  0999 V2000
  -21.0398  -44.4898   29.3592 C   0  0  0  0  0  0  0  0  0  0  0  0
  -18.9597  -43.2665   29.8931 C   0  0  0  0  0  0  0  0  0  0  0  0
  -18.1722  -42.0244   30.1050 C   0  0  1  0  0  0  0  0  0  0  0  0
  -19.0676  -40.7805   30.2377 C   0  0  2  0  0  0  0  0  0  0  0  0
  -20.1540  -40.8444   29.1594 C   0  0  2  0  0  0  0  0  0  0  0  0
  -21.1858  -39.6916   29.1948 C   0  0  1  0  0  0  0  0  0  0  0  0
  -21.8425  -39.2637   27.8631 C   0  0  1  0  0  0  0  0  0  0  0  0
  -23.0074  -38.2834   28.0638 C   0  0  0  0  0  0  0  0  0  0  0  0
  -18.2377  -39.6175   30.1248 O   0  0  0  0  0  0  0  0  0  0  0  0
  -20.3005  -45.6118   29.4294 O   0  0  0  0  0  0  0  0  0  0  0  0
  -22.2421  -44.5466   29.1659 O   0  0  0  0  0  0  0  0  0  0  0  0
  -17.4004  -42.1328   31.3004 O   0  0  0  0  0  0  0  0  0  0  0  0
  -20.9414  -42.0546   29.3085 O   0  0  0  0  0  0  0  0  0  0  0  0
  -20.2541  -43.2328   29.5326 C   0  0  0  0  0  0  0  0  0  0  0  0
  -22.2552  -40.1140   30.0784 O   0  0  0  0  0  0  0  0  0  0  0  0
  -20.9095  -38.6944   26.9301 O   0  0  0  0  0  0  0  0  0  0  0  0
  -22.5026  -36.9565   28.2232 O   0  0  0  0  0  0  0  0  0  0  0  0
  2  3  1  0
  3  4  1  0
  4  5  1  0
  5  6  1  0
  6  7  1  0
  7  8  1  0
  4  9  1  6
  1 10  1  0
  1 11  2  0
  3 12  1  1
  5 13  1  1
  1 14  1  0
  2 14  2  0
 13 14  1  0
  6 15  1  1
  7 16  1  6
  8 17  1  0
M  END
