7OZ9_NGK_BBB_602
     RDKit          3D

 34 34  0  0  0  0  0  0  0  0999 V2000
   -0.0263    0.6440   -1.3544 C   0  0  1  0  0  0  0  0  0  0  0  0
    1.0383   -0.0064   -0.4363 C   0  0  1  0  0  0  0  0  0  0  0  0
    0.4528   -1.2475    0.2905 C   0  0  2  0  0  0  0  0  0  0  0  0
   -1.0775   -1.1406    0.4503 C   0  0  2  0  0  0  0  0  0  0  0  0
   -1.7076   -0.9659   -0.9745 C   0  0  1  0  0  0  0  0  0  0  0  0
   -3.0750   -0.2638   -0.9737 C   0  0  0  0  0  0  0  0  0  0  0  0
    3.5428   -0.3985   -0.6556 C   0  0  0  0  0  0  0  0  0  0  0  0
    4.6876   -0.9268   -1.4565 C   0  0  0  0  0  0  0  0  0  0  0  0
    2.2194   -0.4096   -1.2083 N   0  0  0  0  0  0  0  0  0  0  0  0
    0.5986    1.3818   -2.3709 O   0  0  0  0  0  0  0  0  0  0  0  0
    1.0885   -1.4699    1.5247 O   0  0  0  0  0  0  0  0  0  0  0  0
   -1.3898   -0.0280    1.2743 O   0  0  0  0  0  0  0  0  0  0  0  0
   -0.8462   -0.3543   -1.9334 O   0  0  0  0  0  0  0  0  0  0  0  0
   -4.0092   -1.0313   -0.2672 O   0  0  0  0  0  0  0  0  0  0  0  0
    3.7455    0.0283    0.5134 O   0  0  0  0  0  0  0  0  0  0  0  0
   -2.0713   -0.5367    2.7460 S   0  0  0  0  0  6  0  0  0  0  0  0
   -3.3799   -1.2364    2.5069 O   0  0  0  0  0  0  0  0  0  0  0  0
   -2.3410    0.8118    3.7114 O   0  0  0  0  0  0  0  0  0  0  0  0
   -1.1328   -1.4644    3.4659 O   0  0  0  0  0  0  0  0  0  0  0  0
   -0.6429    1.3540   -0.7523 H   0  0  0  0  0  0  0  0  0  0  0  0
    1.3302    0.7698    0.3061 H   0  0  0  0  0  0  0  0  0  0  0  0
    0.6444   -2.1461   -0.3391 H   0  0  0  0  0  0  0  0  0  0  0  0
   -1.4480   -2.1100    0.8616 H   0  0  0  0  0  0  0  0  0  0  0  0
   -1.8915   -1.9944   -1.3581 H   0  0  0  0  0  0  0  0  0  0  0  0
   -3.4203   -0.1488   -2.0256 H   0  0  0  0  0  0  0  0  0  0  0  0
   -2.9941    0.7510   -0.5253 H   0  0  0  0  0  0  0  0  0  0  0  0
    5.6547   -0.6619   -0.9776 H   0  0  0  0  0  0  0  0  0  0  0  0
    4.6632   -0.4903   -2.4772 H   0  0  0  0  0  0  0  0  0  0  0  0
    4.6079   -2.0313   -1.5302 H   0  0  0  0  0  0  0  0  0  0  0  0
    2.0773   -0.8643   -2.1394 H   0  0  0  0  0  0  0  0  0  0  0  0
   -0.1261    1.8390   -2.8726 H   0  0  0  0  0  0  0  0  0  0  0  0
    0.9956   -0.6454    2.0690 H   0  0  0  0  0  0  0  0  0  0  0  0
   -4.8570   -0.5158   -0.2821 H   0  0  0  0  0  0  0  0  0  0  0  0
   -2.8351    1.4439    3.1303 H   0  0  0  0  0  0  0  0  0  0  0  0
  1  2  1  0
  2  3  1  0
  3  4  1  0
  4  5  1  0
  5  6  1  0
  7  8  1  0
  2  9  1  0
  7  9  1  0
  1 10  1  0
  3 11  1  0
  4 12  1  0
  1 13  1  0
  5 13  1  0
  6 14  1  0
  7 15  2  0
 12 16  1  0
 16 17  2  0
 16 18  1  0
 16 19  2  0
  1 20  1  1
  2 21  1  1
  3 22  1  6
  4 23  1  1
  5 24  1  6
  6 25  1  0
  6 26  1  0
  8 27  1  0
  8 28  1  0
  8 29  1  0
  9 30  1  0
 10 31  1  0
 11 32  1  0
 14 33  1  0
 18 34  1  0
M  END
