7OZ9_NGK_BBB_602
     RDKit          3D

 19 19  0  0  0  0  0  0  0  0999 V2000
   34.9570   37.7610   30.5770 C   0  0  1  0  0  0  0  0  0  0  0  0
   34.2810   37.7740   31.9530 C   0  0  1  0  0  0  0  0  0  0  0  0
   33.6170   39.1230   32.2330 C   0  0  2  0  0  0  0  0  0  0  0  0
   34.6030   40.2650   31.9990 C   0  0  2  0  0  0  0  0  0  0  0  0
   35.1960   40.1510   30.5990 C   0  0  1  0  0  0  0  0  0  0  0  0
   36.2370   41.2090   30.3210 C   0  0  0  0  0  0  0  0  0  0  0  0
   33.4020   35.7920   33.0860 C   0  0  0  0  0  0  0  0  0  0  0  0
   32.4530   34.6350   32.9920 C   0  0  0  0  0  0  0  0  0  0  0  0
   33.3450   36.6740   32.0820 N   0  0  0  0  0  0  0  0  0  0  0  0
   33.9820   37.7760   29.5730 O   0  0  0  0  0  0  0  0  0  0  0  0
   33.1410   39.2010   33.5690 O   0  0  0  0  0  0  0  0  0  0  0  0
   35.6650   40.1760   33.0280 O   0  0  0  0  0  0  0  0  0  0  0  0
   35.8380   38.8690   30.4260 O   0  0  0  0  0  0  0  0  0  0  0  0
   36.5310   41.2770   28.9270 O   0  0  0  0  0  0  0  0  0  0  0  0
   34.1940   35.9170   34.0200 O   0  0  0  0  0  0  0  0  0  0  0  0
   35.7890   41.3310   34.1280 S   0  0  0  0  0  0  0  0  0  0  0  0
   36.0490   42.5480   33.4230 O   0  0  0  0  0  0  0  0  0  0  0  0
   36.8770   40.9080   34.9680 O   0  0  0  0  0  0  0  0  0  0  0  0
   34.5160   41.3540   34.8130 O   0  0  0  0  0  0  0  0  0  0  0  0
  1  2  1  0
  2  3  1  0
  3  4  1  0
  4  5  1  0
  5  6  1  1
  7  8  1  0
  2  9  1  6
  7  9  1  0
  1 10  1  6
  3 11  1  1
  4 12  1  1
  1 13  1  0
  5 13  1  0
  6 14  1  0
  7 15  2  0
 12 16  1  0
 16 17  2  0
 16 18  1  0
 16 19  2  0
M  END
$$$$
