7C0U_FGO_B_506
     RDKit          3D

 43 48  0  0  0  0  0  0  0  0999 V2000
   11.5839  -11.1063    8.3606 C   0  0  1  0  0  0  0  0  0  0  0  0
   12.9440   -9.4965    7.7978 C   0  0  1  0  0  0  0  0  0  0  0  0
   14.5832   -7.7905    6.9282 C   0  0  0  0  0  0  0  0  0  0  0  0
   15.7109   -7.8113    6.1368 C   0  0  0  0  0  0  0  0  0  0  0  0
   14.9251   -9.8340    6.3590 C   0  0  0  0  0  0  0  0  0  0  0  0
   16.3661   -6.6238    5.8709 C   0  0  0  0  0  0  0  0  0  0  0  0
   14.7659   -5.4636    7.1765 C   0  0  0  0  0  0  0  0  0  0  0  0
   11.6541   -9.1832    7.0369 C   0  0  1  0  0  0  0  0  0  0  0  0
   10.6863   -9.9718    7.9281 C   0  0  2  0  0  0  0  0  0  0  0  0
   11.2624   -7.7464    7.1778 C   0  0  0  0  0  0  0  0  0  0  0  0
    9.6509  -14.0130    6.3184 O   0  0  0  0  0  0  0  0  0  0  0  0
   11.1383  -14.0774    5.9728 P   0  0  1  0  0  0  0  0  0  0  0  0
   11.7901  -15.5263    6.5068 O   0  0  0  0  0  0  0  0  0  0  0  0
   11.3487  -13.8961    4.2904 O   0  0  0  0  0  0  0  0  0  0  0  0
   11.0165  -12.6284    3.8812 C   0  0  2  0  0  0  0  0  0  0  0  0
   10.8205  -12.4951    2.3891 C   0  0  1  0  0  0  0  0  0  0  0  0
    9.4802  -13.0400    1.9503 C   0  0  0  0  0  0  0  0  0  0  0  0
    8.4276  -12.2562    2.3989 O   0  0  0  0  0  0  0  0  0  0  0  0
   10.8860  -11.1099    2.2423 O   0  0  0  0  0  0  0  0  0  0  0  0
   12.1078  -10.8233    2.8303 C   0  0  1  0  0  0  0  0  0  0  0  0
   12.2419   -9.4132    3.1451 N   0  0  0  0  0  0  0  0  0  0  0  0
   11.1601   -8.7832    3.6242 C   0  0  0  0  0  0  0  0  0  0  0  0
   11.1580   -7.4387    3.9630 C   0  0  0  0  0  0  0  0  0  0  0  0
   12.3616   -6.7686    3.7747 C   0  0  0  0  0  0  0  0  0  0  0  0
   12.4031   -5.5555    4.0675 O   0  0  0  0  0  0  0  0  0  0  0  0
   13.4193   -7.4438    3.2914 N   0  0  0  0  0  0  0  0  0  0  0  0
   13.3948   -8.7386    2.9731 C   0  0  0  0  0  0  0  0  0  0  0  0
   14.4000   -9.3474    2.5220 O   0  0  0  0  0  0  0  0  0  0  0  0
   12.2001  -11.6783    4.0809 C   0  0  2  0  0  0  0  0  0  0  0  0
   13.3594  -12.4438    3.9744 O   0  0  0  0  0  0  0  0  0  0  0  0
   11.8451  -12.7468    6.7281 O   0  0  0  0  0  0  0  0  0  0  0  0
   11.0384  -12.4214    7.8425 C   0  0  0  0  0  0  0  0  0  0  0  0
   10.4779   -9.0313    9.0896 C   0  0  0  0  0  0  0  0  0  0  0  0
   10.6659   -7.6290    8.5620 C   0  0  1  0  0  0  0  0  0  0  0  0
   11.6089   -6.9478    9.3384 O   0  0  0  0  0  0  0  0  0  0  0  0
    9.4539   -6.9920    8.4675 O   0  0  0  0  0  0  0  0  0  0  0  0
   12.8575  -10.8645    7.8582 O   0  0  0  0  0  0  0  0  0  0  0  0
   14.1019   -9.0393    7.0626 N   0  0  0  0  0  0  0  0  0  0  0  0
   15.9068   -9.1084    5.7903 N   0  0  0  0  0  0  0  0  0  0  0  0
   14.1318   -6.6219    7.4324 N   0  0  0  0  0  0  0  0  0  0  0  0
   14.2293   -4.2838    7.7421 N   0  0  0  0  0  0  0  0  0  0  0  0
   15.8669   -5.4922    6.4026 N   0  0  0  0  0  0  0  0  0  0  0  0
   17.4052   -6.6333    5.1433 O   0  0  0  0  0  0  0  0  0  0  0  0
  3  4  2  0
  4  6  1  0
  2  8  1  0
  8  9  1  0
  1  9  1  0
  8 10  1  1
 11 12  2  0
 12 13  1  1
 12 14  1  0
 15 14  1  6
 15 16  1  0
 16 17  1  1
 17 18  1  0
 16 19  1  0
 19 20  1  0
 20 21  1  1
 21 22  1  0
 22 23  2  0
 23 24  1  0
 24 25  2  0
 24 26  1  0
 26 27  1  0
 21 27  1  0
 27 28  2  0
 20 29  1  0
 15 29  1  0
 29 30  1  6
 12 31  1  0
  1 32  1  6
 31 32  1  0
  9 33  1  1
 10 34  1  0
 33 34  1  0
 34 35  1  1
 34 36  1  0
  2 37  1  0
  1 37  1  0
  2 38  1  6
  3 38  1  0
  5 38  1  0
  4 39  1  0
  5 39  2  0
  7 40  2  0
  3 40  1  0
  7 41  1  0
  7 42  1  0
  6 42  1  0
  6 43  2  0
M  END
$$$$
