1M2Z_DEX_A_301
     RDKit          3D

 28 31  0  0  0  0  0  0  0  0999 V2000
   22.0048   46.4647   12.9935 C   0  0  0  0  0  0  0  0  0  0  0  0
   21.5759   47.6900   12.8089 C   0  0  0  0  0  0  0  0  0  0  0  0
   21.2132   48.1205   11.4674 C   0  0  0  0  0  0  0  0  0  0  0  0
   21.3593   47.1388   10.4019 C   0  0  0  0  0  0  0  0  0  0  0  0
   21.7964   45.9403   10.6737 C   0  0  0  0  0  0  0  0  0  0  0  0
   21.9608   44.9002    9.5697 C   0  0  0  0  0  0  0  0  0  0  0  0
   23.4603   44.7196    9.4776 C   0  0  0  0  0  0  0  0  0  0  0  0
   23.8744   44.0497   10.7445 C   0  0  2  0  0  0  0  0  0  0  0  0
   23.5359   44.8008   12.0114 C   0  0  1  0  0  0  0  0  0  0  0  0
   22.1793   45.4115   12.0042 C   0  0  1  0  0  0  0  0  0  0  0  0
   23.8408   43.9347   13.1752 C   0  0  2  0  0  0  0  0  0  0  0  0
   25.1781   43.2822   13.1595 C   0  0  0  0  0  0  0  0  0  0  0  0
   25.5140   42.6501   11.8174 C   0  0  1  0  0  0  0  0  0  0  0  0
   25.3297   43.7956   10.8461 C   0  0  1  0  0  0  0  0  0  0  0  0
   26.1273   43.4335    9.6801 C   0  0  0  0  0  0  0  0  0  0  0  0
   27.4493   43.1294   10.4346 C   0  0  2  0  0  0  0  0  0  0  0  0
   26.9781   42.3625   11.6578 C   0  0  2  0  0  0  0  0  0  0  0  0
   24.7050   41.4410   11.5562 C   0  0  0  0  0  0  0  0  0  0  0  0
   21.0987   44.3688   12.3909 C   0  0  0  0  0  0  0  0  0  0  0  0
   27.3455   40.9560   11.4291 C   0  0  0  0  0  0  0  0  0  0  0  0
   27.8142   39.9860   12.4201 C   0  0  0  0  0  0  0  0  0  0  0  0
   27.9847   44.4548   10.9133 C   0  0  0  0  0  0  0  0  0  0  0  0
   24.4523   45.8534   12.0753 F   0  0  0  0  0  0  0  0  0  0  0  0
   20.7944   49.2473   11.1699 O   0  0  0  0  0  0  0  0  0  0  0  0
   22.8334   43.0347   13.5264 O   0  0  0  0  0  0  0  0  0  0  0  0
   27.6731   42.7421   12.8315 O   0  0  0  0  0  0  0  0  0  0  0  0
   27.2392   40.5479   10.2587 O   0  0  0  0  0  0  0  0  0  0  0  0
   27.5164   38.6882   11.9314 O   0  0  0  0  0  0  0  0  0  0  0  0
  1  2  2  0
  2  3  1  0
  3  4  1  0
  4  5  2  0
  5  6  1  0
  6  7  1  0
  8  7  1  6
  8  9  1  0
  1 10  1  0
  5 10  1  0
  9 10  1  0
  9 11  1  0
 11 12  1  0
 12 13  1  0
  8 14  1  0
 13 14  1  0
 14 15  1  6
 15 16  1  0
 13 17  1  0
 16 17  1  0
 13 18  1  6
 10 19  1  1
 17 20  1  0
 20 21  1  0
 16 22  1  1
  9 23  1  1
  3 24  2  0
 11 25  1  6
 17 26  1  1
 20 27  2  0
 21 28  1  0
M  END
$$$$
