1M2Z_DEX_A_301
     RDKit          3D

 28 31  0  0  0  0  0  0  0  0999 V2000
   18.7657   25.6649   -9.6647 C   0  0  0  0  0  0  0  0  0  0  0  0
   19.5276   25.8035   -8.6065 C   0  0  0  0  0  0  0  0  0  0  0  0
   20.7316   26.6149   -8.7002 C   0  0  0  0  0  0  0  0  0  0  0  0
   21.0118   27.2252   -9.9922 C   0  0  0  0  0  0  0  0  0  0  0  0
   20.2002   27.0330  -10.9951 C   0  0  0  0  0  0  0  0  0  0  0  0
   20.4803   27.6601  -12.3575 C   0  0  0  0  0  0  0  0  0  0  0  0
   20.8013   26.4687  -13.2333 C   0  0  0  0  0  0  0  0  0  0  0  0
   19.5263   25.7083  -13.3802 C   0  0  2  0  0  0  0  0  0  0  0  0
   18.9089   25.2289  -12.0868 C   0  0  1  0  0  0  0  0  0  0  0  0
   18.9518   26.2344  -10.9911 C   0  0  1  0  0  0  0  0  0  0  0  0
   17.5723   24.6585  -12.3791 C   0  0  2  0  0  0  0  0  0  0  0  0
   17.5180   23.6907  -13.5080 C   0  0  0  0  0  0  0  0  0  0  0  0
   18.2629   24.1762  -14.7421 C   0  0  1  0  0  0  0  0  0  0  0  0
   19.6439   24.4851  -14.2064 C   0  0  1  0  0  0  0  0  0  0  0  0
   20.5212   24.4280  -15.3699 C   0  0  0  0  0  0  0  0  0  0  0  0
   20.0732   23.0336  -15.8842 C   0  0  2  0  0  0  0  0  0  0  0  0
   18.5647   23.0731  -15.7135 C   0  0  2  0  0  0  0  0  0  0  0  0
   17.5609   25.2926  -15.4097 C   0  0  0  0  0  0  0  0  0  0  0  0
   17.7826   27.2449  -11.1185 C   0  0  0  0  0  0  0  0  0  0  0  0
   18.0008   23.2212  -17.0647 C   0  0  0  0  0  0  0  0  0  0  0  0
   16.9487   22.4134  -17.6836 C   0  0  0  0  0  0  0  0  0  0  0  0
   20.6106   22.0220  -14.9042 C   0  0  0  0  0  0  0  0  0  0  0  0
   19.6968   24.1506  -11.6764 F   0  0  0  0  0  0  0  0  0  0  0  0
   21.5251   26.8214   -7.7724 O   0  0  0  0  0  0  0  0  0  0  0  0
   16.5319   25.5866  -12.4467 O   0  0  0  0  0  0  0  0  0  0  0  0
   18.0461   21.8489  -15.2265 O   0  0  0  0  0  0  0  0  0  0  0  0
   18.4722   24.1431  -17.7543 O   0  0  0  0  0  0  0  0  0  0  0  0
   16.5677   23.0498  -18.8926 O   0  0  0  0  0  0  0  0  0  0  0  0
  1  2  2  0
  2  3  1  0
  3  4  1  0
  4  5  2  0
  5  6  1  0
  6  7  1  0
  8  7  1  1
  8  9  1  0
  1 10  1  0
  5 10  1  0
  9 10  1  0
  9 11  1  0
 11 12  1  0
 12 13  1  0
  8 14  1  0
 13 14  1  0
 14 15  1  6
 15 16  1  0
 13 17  1  0
 16 17  1  0
 13 18  1  6
 10 19  1  6
 17 20  1  0
 20 21  1  0
 16 22  1  1
  9 23  1  1
  3 24  2  0
 11 25  1  6
 17 26  1  1
 20 27  2  0
 21 28  1  0
M  END
$$$$
