1M2Z_DEX_A_301
     RDKit          3D

 28 31  0  0  0  0  0  0  0  0999 V2000
   29.6137   26.9526    4.1010 C   0  0  0  0  0  0  0  0  0  0  0  0
   29.4172   25.6562    4.1132 C   0  0  0  0  0  0  0  0  0  0  0  0
   28.1290   25.1296    3.6889 C   0  0  0  0  0  0  0  0  0  0  0  0
   27.1273   26.1021    3.2755 C   0  0  0  0  0  0  0  0  0  0  0  0
   27.4063   27.3761    3.2964 C   0  0  0  0  0  0  0  0  0  0  0  0
   26.3676   28.4099    2.8717 C   0  0  0  0  0  0  0  0  0  0  0  0
   26.0363   29.1259    4.1629 C   0  0  0  0  0  0  0  0  0  0  0  0
   27.2595   29.8945    4.5348 C   0  0  2  0  0  0  0  0  0  0  0  0
   28.5084   29.0654    4.7265 C   0  0  1  0  0  0  0  0  0  0  0  0
   28.6871   28.0017    3.7020 C   0  0  1  0  0  0  0  0  0  0  0  0
   29.6627   29.9774    4.9093 C   0  0  2  0  0  0  0  0  0  0  0  0
   29.4677   31.0732    5.8969 C   0  0  0  0  0  0  0  0  0  0  0  0
   28.1368   31.7908    5.7317 C   0  0  1  0  0  0  0  0  0  0  0  0
   27.1313   30.6620    5.7947 C   0  0  1  0  0  0  0  0  0  0  0  0
   25.8761   31.2960    6.1810 C   0  0  0  0  0  0  0  0  0  0  0  0
   26.4158   32.0581    7.4210 C   0  0  2  0  0  0  0  0  0  0  0  0
   27.7528   32.5939    6.9396 C   0  0  2  0  0  0  0  0  0  0  0  0
   28.1035   32.6224    4.5101 C   0  0  0  0  0  0  0  0  0  0  0  0
   29.3247   28.5759    2.4104 C   0  0  0  0  0  0  0  0  0  0  0  0
   27.5665   34.0387    6.7304 C   0  0  0  0  0  0  0  0  0  0  0  0
   28.5140   35.1118    7.0358 C   0  0  0  0  0  0  0  0  0  0  0  0
   26.7008   31.0173    8.4736 C   0  0  0  0  0  0  0  0  0  0  0  0
   28.3408   28.4198    5.9541 F   0  0  0  0  0  0  0  0  0  0  0  0
   27.8268   23.9293    3.6544 O   0  0  0  0  0  0  0  0  0  0  0  0
   30.2428   30.4456    3.7293 O   0  0  0  0  0  0  0  0  0  0  0  0
   28.7618   32.4886    7.9274 O   0  0  0  0  0  0  0  0  0  0  0  0
   26.4795   34.3818    6.2320 O   0  0  0  0  0  0  0  0  0  0  0  0
   28.0581   36.2897    6.3904 O   0  0  0  0  0  0  0  0  0  0  0  0
  1  2  2  0
  2  3  1  0
  3  4  1  0
  4  5  2  0
  5  6  1  0
  6  7  1  0
  8  7  1  1
  8  9  1  0
  1 10  1  0
  5 10  1  0
  9 10  1  0
  9 11  1  0
 11 12  1  0
 12 13  1  0
  8 14  1  0
 13 14  1  0
 14 15  1  6
 15 16  1  0
 13 17  1  0
 16 17  1  0
 13 18  1  6
 10 19  1  6
 17 20  1  0
 20 21  1  0
 16 22  1  1
  9 23  1  1
  3 24  2  0
 11 25  1  6
 17 26  1  1
 20 27  2  0
 21 28  1  0
M  END
$$$$
