7WDT_NGS_A_901
     RDKit          3D

 34 34  0  0  0  0  0  0  0  0999 V2000
   24.1950   -6.9781   -4.1353 C   0  0  1  0  0  0  0  0  0  0  0  0
   22.7284   -7.3811   -4.2686 C   0  0  2  0  0  0  0  0  0  0  0  0
   21.9687   -6.2931   -5.0191 C   0  0  1  0  0  0  0  0  0  0  0  0
   22.8914   -5.4274   -5.8624 C   0  0  2  0  0  0  0  0  0  0  0  0
   23.9223   -4.7229   -4.9839 C   0  0  2  0  0  0  0  0  0  0  0  0
   24.9158   -3.9299   -5.7853 C   0  0  0  0  0  0  0  0  0  0  0  0
   24.7189   -7.4805   -5.3270 O   0  0  0  0  0  0  0  0  0  0  0  0
   21.0254   -6.9522   -5.8523 O   0  0  0  0  0  0  0  0  0  0  0  0
   24.6881   -5.6458   -4.1887 O   0  0  0  0  0  0  0  0  0  0  0  0
   24.2400   -2.7939   -6.2896 O   0  0  0  0  0  0  0  0  0  0  0  0
   22.0414   -7.7036   -3.0388 N   0  0  0  0  0  0  0  0  0  0  0  0
   22.7291   -7.7613   -1.8843 C   0  0  0  0  0  0  0  0  0  0  0  0
   23.5690   -6.9044   -1.5941 O   0  0  0  0  0  0  0  0  0  0  0  0
   22.4584   -8.9474   -1.0020 C   0  0  0  0  0  0  0  0  0  0  0  0
   22.6956   -2.9280   -6.4959 S   0  0  1  0  0  6  0  0  0  0  0  0
   22.1030   -2.1287   -5.4626 O   0  0  0  0  0  0  0  0  0  0  0  0
   22.4388   -2.4973   -7.8278 O   0  0  0  0  0  0  0  0  0  0  0  0
   22.4206   -4.3192   -6.3323 O   0  0  0  0  0  0  0  0  0  0  0  0
   22.1054   -4.4616   -6.5507 O   0  0  0  0  0  0  0  0  0  0  0  0
   24.4368   -7.2956   -3.1425 H   0  0  0  0  0  0  0  0  0  0  0  0
   22.7443   -8.3020   -4.8130 H   0  0  0  0  0  0  0  0  0  0  0  0
   21.4932   -5.6375   -4.3198 H   0  0  0  0  0  0  0  0  0  0  0  0
   23.4152   -6.0451   -6.5617 H   0  0  0  0  0  0  0  0  0  0  0  0
   23.3407   -4.0773   -4.3596 H   0  0  0  0  0  0  0  0  0  0  0  0
   25.7293   -3.6246   -5.1608 H   0  0  0  0  0  0  0  0  0  0  0  0
   25.3139   -4.5194   -6.5846 H   0  0  0  0  0  0  0  0  0  0  0  0
   24.3239   -7.0100   -6.0777 H   0  0  0  0  0  0  0  0  0  0  0  0
   21.4924   -7.5358   -6.4706 H   0  0  0  0  0  0  0  0  0  0  0  0
   21.0729   -7.8804   -3.0459 H   0  0  0  0  0  0  0  0  0  0  0  0
   21.6976   -9.5555   -1.4453 H   0  0  0  0  0  0  0  0  0  0  0  0
   23.3545   -9.5216   -0.8913 H   0  0  0  0  0  0  0  0  0  0  0  0
   22.1302   -8.6096   -0.0413 H   0  0  0  0  0  0  0  0  0  0  0  0
   22.6351   -1.5506   -7.9051 H   0  0  0  0  0  0  0  0  0  0  0  0
   21.6360   -3.9085   -5.9068 H   0  0  0  0  0  0  0  0  0  0  0  0
  1  2  1  0
  2  3  1  0
  3  4  1  0
  4  5  1  0
  5  6  1  0
  1  7  1  0
  3  8  1  0
  1  9  1  0
  5  9  1  0
  6 10  1  0
  2 11  1  0
 11 12  1  0
 12 13  2  0
 12 14  1  0
 15 10  1  6
 15 16  2  0
 15 17  1  0
 15 18  2  0
  4 19  1  0
  1 20  1  6
  2 21  1  1
  3 22  1  6
  4 23  1  1
  5 24  1  6
  6 25  1  0
  6 26  1  0
  7 27  1  0
  8 28  1  0
 11 29  1  0
 14 30  1  0
 14 31  1  0
 14 32  1  0
 17 33  1  0
 19 34  1  0
M  END
