7TXP_0FX_A_301
     RDKit          3D

 35 37  0  0  0  0  0  0  0  0999 V2000
  -16.2517  -16.7916   28.4345 O   0  0  0  0  0  0  0  0  0  0  0  0
  -14.5616  -16.8025   28.4432 P   0  0  1  0  0  5  0  0  0  0  0  0
  -14.1209  -16.9990   27.0155 O   0  0  0  0  0  0  0  0  0  0  0  0
  -14.0254  -15.3366   29.0618 O   0  0  0  0  0  0  0  0  0  0  0  0
  -12.6508  -15.3791   29.2666 C   0  0  2  0  0  0  0  0  0  0  0  0
  -12.3154  -14.4903   30.4303 C   0  0  2  0  0  0  0  0  0  0  0  0
  -13.0915  -14.8101   31.5443 O   0  0  0  0  0  0  0  0  0  0  0  0
  -12.5225  -13.0354   30.0671 C   0  0  1  0  0  0  0  0  0  0  0  0
  -12.1069  -12.2056   31.0889 O   0  0  0  0  0  0  0  0  0  0  0  0
  -11.6792  -12.7856   28.8293 C   0  0  2  0  0  0  0  0  0  0  0  0
  -11.7362  -11.3978   28.4665 N   0  0  0  0  0  0  0  0  0  0  0  0
  -12.1791  -13.7290   27.7744 C   0  0  1  0  0  0  0  0  0  0  0  0
  -11.5334  -13.4410   26.4227 C   0  0  0  0  0  0  0  0  0  0  0  0
  -11.8983  -15.0218   28.1753 O   0  0  0  0  0  0  0  0  0  0  0  0
  -14.0305  -18.1128   29.3680 O   0  0  0  0  0  0  0  0  0  0  0  0
  -14.9599  -19.4725   29.0538 P   0  0  2  0  0  5  0  0  0  0  0  0
  -16.5128  -19.2111   29.6680 O   0  0  0  0  0  0  0  0  0  0  0  0
  -14.2875  -20.6409   29.7803 O   0  0  0  0  0  0  0  0  0  0  0  0
  -14.9668  -19.8793   27.4195 O   0  0  0  0  0  0  0  0  0  0  0  0
  -13.8634  -20.6850   27.0849 C   0  0  0  0  0  0  0  0  0  0  0  0
  -14.3090  -21.9976   26.5018 C   0  0  1  0  0  0  0  0  0  0  0  0
  -13.3726  -23.0156   26.7340 O   0  0  0  0  0  0  0  0  0  0  0  0
  -15.4942  -22.5761   27.2628 C   0  0  1  0  0  0  0  0  0  0  0  0
  -16.6844  -21.9208   26.9739 O   0  0  0  0  0  0  0  0  0  0  0  0
  -15.4830  -23.9980   26.7194 C   0  0  0  0  0  0  0  0  0  0  0  0
  -14.0312  -24.1711   26.3482 C   0  0  2  0  0  0  0  0  0  0  0  0
  -13.5422  -25.3614   26.9913 N   0  0  0  0  0  0  0  0  0  0  0  0
  -13.1018  -25.3252   28.2734 C   0  0  0  0  0  0  0  0  0  0  0  0
  -12.6258  -26.4501   28.9207 C   0  0  0  0  0  0  0  0  0  0  0  0
  -12.1404  -26.4232   30.3258 C   0  0  0  0  0  0  0  0  0  0  0  0
  -13.4932  -26.5693   26.3650 C   0  0  0  0  0  0  0  0  0  0  0  0
  -13.8932  -26.6472   25.1719 O   0  0  0  0  0  0  0  0  0  0  0  0
  -13.0319  -27.6728   26.9837 N   0  0  0  0  0  0  0  0  0  0  0  0
  -12.5897  -27.6533   28.2605 C   0  0  0  0  0  0  0  0  0  0  0  0
  -12.1645  -28.6770   28.8268 O   0  0  0  0  0  0  0  0  0  0  0  0
  2  1  1  6
  2  3  2  0
  2  4  1  0
  5  4  1  6
  5  6  1  0
  6  7  1  1
  6  8  1  0
  8  9  1  1
  8 10  1  0
 10 11  1  6
 10 12  1  0
 13 12  1  6
 12 14  1  1
  5 14  1  0
  2 15  1  0
 16 15  1  0
 16 17  1  1
 16 18  2  0
 16 19  1  0
 20 19  1  1
 21 20  1  0
 21 22  1  1
 21 23  1  0
 23 24  1  6
 23 25  1  0
 25 26  1  6
 22 26  1  0
 26 27  1  1
 27 28  1  0
 28 29  2  0
 30 29  1  1
 27 31  1  0
 31 32  2  0
 31 33  1  0
 33 34  1  0
 29 34  1  0
 34 35  2  0
M  END
$$$$
