
     RDKit          3D

 33 36  0  0  0  0  0  0  0  0999 V2000
   29.9884   44.7732    8.8767 C   0  0  0  0  0  0  0  0  0  0  0  0
   29.0684   44.6149    9.9239 C   0  0  0  0  0  0  0  0  0  0  0  0
   28.1399   45.5389   10.2386 N   0  0  0  0  0  0  0  0  0  0  0  0
   28.1153   46.6682    9.4920 C   0  0  0  0  0  0  0  0  0  0  0  0
   28.9858   46.9351    8.4423 C   0  0  0  0  0  0  0  0  0  0  0  0
   29.9411   45.9581    8.1448 C   0  0  0  0  0  0  0  0  0  0  0  0
   30.8729   43.7473    8.6663 O   0  0  0  0  0  0  0  0  0  0  0  0
   29.1055   43.4917   10.7522 N   0  0  0  0  0  0  0  0  0  0  0  0
   32.0883   44.0136    7.9398 C   0  0  1  0  0  0  0  0  0  0  0  0
   32.9708   45.0443    8.6383 C   0  0  0  0  0  0  0  0  0  0  0  0
   32.8358   42.6801    7.8598 C   0  0  0  0  0  0  0  0  0  0  0  0
   33.6854   46.0257    7.9056 C   0  0  0  0  0  0  0  0  0  0  0  0
   34.5700   46.8832    8.5923 C   0  0  0  0  0  0  0  0  0  0  0  0
   34.7352   46.7943    9.9738 C   0  0  0  0  0  0  0  0  0  0  0  0
   34.0259   45.8385   10.6824 C   0  0  0  0  0  0  0  0  0  0  0  0
   33.1602   44.9653   10.0337 C   0  0  0  0  0  0  0  0  0  0  0  0
   34.1877   45.7442   12.0076 F   0  0  0  0  0  0  0  0  0  0  0  0
   33.5361   46.1441    6.4919 N   0  0  0  0  0  0  0  0  0  0  0  0
   34.4862   46.7955    5.7052 N   0  0  0  0  0  0  0  0  0  0  0  0
   33.8623   47.4267    4.6405 C   0  0  0  0  0  0  0  0  0  0  0  0
   32.5396   47.3207    4.8118 C   0  0  0  0  0  0  0  0  0  0  0  0
   32.3032   46.5555    5.9523 N   0  0  0  0  0  0  0  0  0  0  0  0
   28.9194   48.1874    7.6922 C   0  0  0  0  0  0  0  0  0  0  0  0
   27.8274   48.9159    7.2454 C   0  0  0  0  0  0  0  0  0  0  0  0
   28.1429   50.0705    6.5434 N   0  0  0  0  0  0  0  0  0  0  0  0
   29.4520   50.2364    6.4825 C   0  0  0  0  0  0  0  0  0  0  0  0
   30.3683   48.9821    7.2215 S   0  0  0  0  0  0  0  0  0  0  0  0
   26.3875   48.6000    7.4513 C   0  0  0  0  0  0  0  0  0  0  0  0
   30.1243   51.4103    5.7844 C   0  0  1  0  0  0  0  0  0  0  0  0
   29.6747   52.7431    6.4361 C   0  0  0  0  0  0  0  0  0  0  0  0
   31.5472   51.2837    5.9632 O   0  0  0  0  0  0  0  0  0  0  0  0
   29.8125   51.3932    4.2850 C   0  0  0  0  0  0  0  0  0  0  0  0
   30.2315   52.9560    7.7310 O   0  0  0  0  0  0  0  0  0  0  0  0
  1  2  4  0
  2  3  4  0
  3  4  4  0
  4  5  4  0
  1  6  4  0
  5  6  4  0
  1  7  1  0
  2  8  1  0
  7  9  1  0
  9 10  1  0
  9 11  1  1
 10 12  4  0
 12 13  4  0
 13 14  4  0
 14 15  4  0
 10 16  4  0
 15 16  4  0
 15 17  1  0
 12 18  1  0
 18 19  1  0
 19 20  1  0
 20 21  2  0
 18 22  1  0
 21 22  1  0
  5 23  1  0
 23 24  4  0
 24 25  4  0
 25 26  4  0
 23 27  4  0
 26 27  4  0
 24 28  1  0
 26 29  1  0
 29 30  1  0
 29 31  1  0
 29 32  1  6
 30 33  1  0
M  END
