1SQN_NDR_B_2001
     RDKit          3D

 48 51  0  0  0  0  0  0  0  0999 V2000
    9.5673   11.9789   20.0825 O   0  0  0  0  0  0  0  0  0  0  0  0
    8.4456   11.9073   19.5142 C   0  0  0  0  0  0  0  0  0  0  0  0
    7.6985   13.1571   19.1770 C   0  0  1  0  0  0  0  0  0  0  0  0
    7.9117   10.5990   19.1142 C   0  0  0  0  0  0  0  0  0  0  0  0
    6.6907   10.4709   18.5650 C   0  0  0  0  0  0  0  0  0  0  0  0
    6.2959    9.1283   17.9975 C   0  0  2  0  0  0  0  0  0  0  0  0
    5.8222   11.6945   18.2593 C   0  0  2  0  0  0  0  0  0  0  0  0
    6.1935   12.8897   19.1760 C   0  0  2  0  0  0  0  0  0  0  0  0
    4.3084   11.3399   18.3839 C   0  0  2  0  0  0  0  0  0  0  0  0
    3.9841   10.0457   17.5722 C   0  0  1  0  0  0  0  0  0  0  0  0
    4.7969    8.8712   18.1431 C   0  0  2  0  0  0  0  0  0  0  0  0
    3.3905   12.5343   17.9766 C   0  0  1  0  0  0  0  0  0  0  0  0
    1.8857   12.1750   17.9500 C   0  0  2  0  0  0  0  0  0  0  0  0
    1.6174   10.9117   17.0924 C   0  0  2  0  0  0  0  0  0  0  0  0
    2.4686    9.7674   17.6629 C   0  0  1  0  0  0  0  0  0  0  0  0
    1.9393   11.2328   15.5931 C   0  0  2  0  0  0  0  0  0  0  0  0
    0.1863   10.2944   17.1784 C   0  0  1  0  0  0  0  0  0  0  0  0
   -0.6974   10.9218   16.2784 O   0  0  0  0  0  0  0  0  0  0  0  0
    0.4162    8.8033   16.7990 C   0  0  2  0  0  0  0  0  0  0  0  0
    1.9143    8.5084   17.0048 C   0  0  2  0  0  0  0  0  0  0  0  0
   -0.3865   10.3777   18.5454 C   0  0  0  0  0  0  0  0  0  0  0  0
   -0.8540   10.4422   19.6551 C   0  0  0  0  0  0  0  0  0  0  0  0
    7.9308   13.9506   19.9202 H   0  0  0  0  0  0  0  0  0  0  0  0
    8.0182   13.5094   18.1727 H   0  0  0  0  0  0  0  0  0  0  0  0
    8.5389    9.7270   19.2599 H   0  0  0  0  0  0  0  0  0  0  0  0
    6.8396    8.3019   18.5068 H   0  0  0  0  0  0  0  0  0  0  0  0
    6.5727    9.1031   16.9211 H   0  0  0  0  0  0  0  0  0  0  0  0
    6.0284   11.9903   17.2063 H   0  0  0  0  0  0  0  0  0  0  0  0
    5.6944   13.8162   18.8237 H   0  0  0  0  0  0  0  0  0  0  0  0
    5.8589   12.6868   20.2178 H   0  0  0  0  0  0  0  0  0  0  0  0
    4.0979   11.1286   19.4581 H   0  0  0  0  0  0  0  0  0  0  0  0
    4.2853   10.1718   16.5112 H   0  0  0  0  0  0  0  0  0  0  0  0
    4.5487    8.7146   19.2166 H   0  0  0  0  0  0  0  0  0  0  0  0
    4.5524    7.9356   17.5959 H   0  0  0  0  0  0  0  0  0  0  0  0
    3.5044   13.3557   18.7146 H   0  0  0  0  0  0  0  0  0  0  0  0
    3.7066   12.9448   16.9953 H   0  0  0  0  0  0  0  0  0  0  0  0
    1.3044   13.0353   17.5531 H   0  0  0  0  0  0  0  0  0  0  0  0
    1.5632   12.0165   19.0013 H   0  0  0  0  0  0  0  0  0  0  0  0
    2.2374    9.6640   18.7515 H   0  0  0  0  0  0  0  0  0  0  0  0
    1.4118   12.1589   15.2801 H   0  0  0  0  0  0  0  0  0  0  0  0
    1.6141   10.4173   14.9148 H   0  0  0  0  0  0  0  0  0  0  0  0
    3.0132   11.4073   15.3988 H   0  0  0  0  0  0  0  0  0  0  0  0
   -1.4669   10.3096   16.1341 H   0  0  0  0  0  0  0  0  0  0  0  0
    0.1544    8.6281   15.7321 H   0  0  0  0  0  0  0  0  0  0  0  0
   -0.2056    8.1130   17.4123 H   0  0  0  0  0  0  0  0  0  0  0  0
    2.0574    7.6209   17.6590 H   0  0  0  0  0  0  0  0  0  0  0  0
    2.4141    8.3246   16.0285 H   0  0  0  0  0  0  0  0  0  0  0  0
   -1.2635   10.4990   20.6291 H   0  0  0  0  0  0  0  0  0  0  0  0
  1  2  2  0
  2  3  1  0
  2  4  1  0
  4  5  2  0
  5  6  1  0
  5  7  1  0
  3  8  1  0
  7  8  1  0
  7  9  1  0
  9 10  1  0
  6 11  1  0
 10 11  1  0
  9 12  1  0
 12 13  1  0
 13 14  1  0
 10 15  1  0
 14 15  1  0
 14 16  1  0
 14 17  1  6
 17 18  1  0
 17 19  1  0
 15 20  1  0
 19 20  1  0
 17 21  1  1
 21 22  3  0
  3 23  1  1
  3 24  1  0
  4 25  1  0
  6 26  1  1
  6 27  1  0
  7 28  1  6
  8 29  1  6
  8 30  1  0
  9 31  1  1
 10 32  1  6
 11 33  1  1
 11 34  1  0
 12 35  1  1
 12 36  1  0
 13 37  1  6
 13 38  1  0
 15 39  1  1
 16 40  1  6
 16 41  1  0
 16 42  1  0
 18 43  1  0
 19 44  1  6
 19 45  1  0
 20 46  1  1
 20 47  1  0
 22 48  1  0
M  END
