8DHG_T78_A_403
     RDKit          3D

 35 37  0  0  0  0  0  0  0  0999 V2000
   34.2290  -20.8280   21.8020 C   0  0  0  0  0  0  0  0  0  0  0  0
   33.7180  -22.2180   22.1640 C   0  0  0  0  0  0  0  0  0  0  0  0
   31.2330  -22.3480   21.9020 C   0  0  0  0  0  0  0  0  0  0  0  0
   31.9500  -21.8740   23.9370 C   0  0  0  0  0  0  0  0  0  0  0  0
   28.8270  -22.2600   22.4690 C   0  0  0  0  0  0  0  0  0  0  0  0
   26.0600  -23.8640   24.0840 O   0  0  0  0  0  0  0  0  0  0  0  0
   26.7060  -24.6950   25.0470 C   0  0  1  0  0  0  0  0  0  0  0  0
   26.7980  -23.9680   26.3890 C   0  0  0  0  0  0  0  0  0  0  0  0
   25.8670  -25.9660   25.1210 C   0  0  0  0  0  0  0  0  0  0  0  0
   26.8700  -21.8140   21.1550 C   0  0  0  0  0  0  0  0  0  0  0  0
   28.2190  -21.6510   21.3630 C   0  0  0  0  0  0  0  0  0  0  0  0
   22.1090  -24.5670   21.1040 C   0  0  0  0  0  0  0  0  0  0  0  0
   23.0280  -24.9580   19.9670 C   0  0  0  0  0  0  0  0  0  0  0  0
   20.7520  -24.8450   20.9970 C   0  0  0  0  0  0  0  0  0  0  0  0
   19.8780  -24.5190   22.0270 C   0  0  0  0  0  0  0  0  0  0  0  0
   21.6080  -23.6510   23.2830 C   0  0  0  0  0  0  0  0  0  0  0  0
   32.3420  -22.1460   22.6430 N   0  0  0  0  0  0  0  0  0  0  0  0
   31.1910  -22.6210   20.7000 O   0  0  0  0  0  0  0  0  0  0  0  0
   30.1810  -22.1710   22.7360 N   0  0  0  0  0  0  0  0  0  0  0  0
   30.6770  -21.8820   24.0020 N   0  0  0  0  0  0  0  0  0  0  0  0
   32.7950  -21.6100   25.1530 C   0  0  0  0  0  0  0  0  0  0  0  0
   33.7040  -20.5330   24.9880 O   0  0  0  0  0  0  0  0  0  0  0  0
   28.0850  -22.9580   23.3160 N   0  0  0  0  0  0  0  0  0  0  0  0
   26.7690  -23.1300   23.1770 C   0  0  0  0  0  0  0  0  0  0  0  0
   25.8150  -26.5430   23.8580 F   0  0  0  0  0  0  0  0  0  0  0  0
   26.4800  -26.8350   25.9920 F   0  0  0  0  0  0  0  0  0  0  0  0
   24.5840  -25.6710   25.5410 F   0  0  0  0  0  0  0  0  0  0  0  0
   26.0850  -22.5460   22.0690 C   0  0  0  0  0  0  0  0  0  0  0  0
   28.8970  -20.9190   20.4710 F   0  0  0  0  0  0  0  0  0  0  0  0
   24.6360  -22.7220   21.7950 C   0  0  0  0  0  0  0  0  0  0  0  0
   24.1280  -22.1020   20.8740 O   0  0  0  0  0  0  0  0  0  0  0  0
   23.9090  -23.6470   22.4950 N   0  0  0  0  0  0  0  0  0  0  0  0
   22.5540  -23.9330   22.2850 C   0  0  0  0  0  0  0  0  0  0  0  0
   20.3210  -23.9420   23.1360 N   0  0  0  0  0  0  0  0  0  0  0  0
   22.1200  -22.8980   24.7380 Cl  0  0  0  0  0  0  0  0  0  0  0  0
  1  2  1  0
  6  7  1  0
  7  8  1  1
  7  9  1  0
 10 11  2  0
  5 11  1  0
 12 13  1  0
 12 14  2  0
 14 15  1  0
  3 17  1  0
  2 17  1  0
  4 17  1  0
  3 18  2  0
  3 19  1  0
  5 19  1  0
 19 20  1  0
  4 20  2  0
  4 21  1  0
 21 22  1  0
  5 23  2  0
 23 24  1  0
  6 24  1  0
  9 25  1  0
  9 26  1  0
  9 27  1  0
 10 28  1  0
 24 28  2  0
 11 29  1  0
 28 30  1  0
 30 31  2  0
 30 32  1  0
 12 33  1  0
 32 33  1  0
 16 33  2  0
 15 34  2  0
 16 34  1  0
 16 35  1  0
M  END
$$$$
