1YVF_PH7_A_800
     RDKit          3D

 28 30  0  0  0  0  0  0  0  0999 V2000
  -20.8715   36.8465   57.9725 C   0  0  0  0  0  0  0  0  0  0  0  0
  -22.0511   36.4252   58.3507 C   0  0  0  0  0  0  0  0  0  0  0  0
  -22.4919   36.2481   59.6842 N   0  0  0  0  0  0  0  0  0  0  0  0
  -22.5805   37.4090   60.4969 C   0  0  0  0  0  0  0  0  0  0  0  0
  -22.3091   38.5418   59.9769 O   0  0  0  0  0  0  0  0  0  0  0  0
  -19.7081   37.0443   58.8047 C   0  0  0  0  0  0  0  0  0  0  0  0
  -18.5218   37.5980   58.4134 C   0  0  0  0  0  0  0  0  0  0  0  0
  -17.5550   37.3198   60.6061 C   0  0  0  0  0  0  0  0  0  0  0  0
  -19.7932   36.6267   60.1329 C   0  0  0  0  0  0  0  0  0  0  0  0
  -18.7466   36.7608   61.0077 C   0  0  0  0  0  0  0  0  0  0  0  0
  -15.5582   38.4688   61.2490 C   0  0  0  0  0  0  0  0  0  0  0  0
  -14.4979   38.5416   62.1654 C   0  0  0  0  0  0  0  0  0  0  0  0
  -13.5184   39.5088   62.0488 C   0  0  0  0  0  0  0  0  0  0  0  0
  -13.5293   40.4439   61.0374 C   0  0  0  0  0  0  0  0  0  0  0  0
  -14.5806   40.3812   60.1176 C   0  0  0  0  0  0  0  0  0  0  0  0
  -15.5566   39.3997   60.2529 C   0  0  0  0  0  0  0  0  0  0  0  0
  -23.0443   36.0963   57.3054 C   0  0  0  0  0  0  0  0  0  0  0  0
  -24.2703   35.5167   57.6071 O   0  0  0  0  0  0  0  0  0  0  0  0
  -22.8264   36.3273   56.0853 O   0  0  0  0  0  0  0  0  0  0  0  0
  -22.9635   37.4029   61.8947 C   0  0  0  0  0  0  0  0  0  0  0  0
  -23.3194   36.2006   62.4754 C   0  0  0  0  0  0  0  0  0  0  0  0
  -23.7037   36.1040   63.8042 C   0  0  0  0  0  0  0  0  0  0  0  0
  -23.7329   37.2351   64.5712 C   0  0  0  0  0  0  0  0  0  0  0  0
  -23.3797   38.4510   64.0080 C   0  0  0  0  0  0  0  0  0  0  0  0
  -23.0059   38.5175   62.6984 C   0  0  0  0  0  0  0  0  0  0  0  0
  -17.4434   37.7466   59.2782 C   0  0  0  0  0  0  0  0  0  0  0  0
  -16.4750   37.4773   61.4500 O   0  0  0  0  0  0  0  0  0  0  0  0
  -14.4052   37.2793   63.6051 Br  0  0  0  0  0  0  0  0  0  0  0  0
  1  2  2  0
  2  3  1  0
  3  4  1  0
  4  5  2  0
  1  6  1  0
  6  7  2  0
  6  9  1  0
  8 10  1  0
  9 10  2  0
 11 12  2  0
 12 13  1  0
 13 14  2  0
 14 15  1  0
 11 16  1  0
 15 16  2  0
  2 17  1  0
 17 18  1  0
 17 19  2  0
  4 20  1  0
 20 21  2  0
 21 22  1  0
 22 23  2  0
 23 24  1  0
 20 25  1  0
 24 25  2  0
  7 26  1  0
  8 26  2  0
  8 27  1  0
 11 27  1  0
 12 28  1  0
M  END
$$$$
