1YVF_PH7_A_800
     RDKit          3D

 28 30  0  0  0  0  0  0  0  0999 V2000
   -0.9433   50.4372   50.4063 C   0  0  0  0  0  0  0  0  0  0  0  0
    0.0580   49.8769   51.0352 C   0  0  0  0  0  0  0  0  0  0  0  0
    0.2893   49.8960   52.4316 N   0  0  0  0  0  0  0  0  0  0  0  0
   -0.2238   48.8097   53.1883 C   0  0  0  0  0  0  0  0  0  0  0  0
   -0.8776   47.8971   52.5824 O   0  0  0  0  0  0  0  0  0  0  0  0
   -1.9457   51.3121   50.9676 C   0  0  0  0  0  0  0  0  0  0  0  0
   -2.1535   51.5521   52.2966 C   0  0  0  0  0  0  0  0  0  0  0  0
   -3.9825   53.0575   51.8403 C   0  0  0  0  0  0  0  0  0  0  0  0
   -2.7902   51.9727   50.0753 C   0  0  0  0  0  0  0  0  0  0  0  0
   -3.7797   52.8207   50.5000 C   0  0  0  0  0  0  0  0  0  0  0  0
   -5.7286   53.5644   53.3944 C   0  0  0  0  0  0  0  0  0  0  0  0
   -6.6901   54.5010   53.8037 C   0  0  0  0  0  0  0  0  0  0  0  0
   -7.5141   54.2527   54.8845 C   0  0  0  0  0  0  0  0  0  0  0  0
   -7.4373   53.0847   55.6107 C   0  0  0  0  0  0  0  0  0  0  0  0
   -6.4833   52.1434   55.2121 C   0  0  0  0  0  0  0  0  0  0  0  0
   -5.6635   52.4130   54.1214 C   0  0  0  0  0  0  0  0  0  0  0  0
    1.0619   49.1415   50.2359 C   0  0  0  0  0  0  0  0  0  0  0  0
    2.0566   48.3718   50.8261 O   0  0  0  0  0  0  0  0  0  0  0  0
    1.0637   49.1768   48.9757 O   0  0  0  0  0  0  0  0  0  0  0  0
   -0.0565   48.6574   54.6198 C   0  0  0  0  0  0  0  0  0  0  0  0
   -0.5251   47.5040   55.2193 C   0  0  0  0  0  0  0  0  0  0  0  0
   -0.4115   47.2780   56.5826 C   0  0  0  0  0  0  0  0  0  0  0  0
    0.1845   48.2266   57.3658 C   0  0  0  0  0  0  0  0  0  0  0  0
    0.6612   49.3907   56.7843 C   0  0  0  0  0  0  0  0  0  0  0  0
    0.5362   49.5873   55.4409 C   0  0  0  0  0  0  0  0  0  0  0  0
   -3.1490   52.4066   52.7565 C   0  0  0  0  0  0  0  0  0  0  0  0
   -4.9635   53.9032   52.3155 O   0  0  0  0  0  0  0  0  0  0  0  0
   -6.8649   56.1544   52.8494 Br  0  0  0  0  0  0  0  0  0  0  0  0
  1  2  2  0
  2  3  1  0
  3  4  1  0
  4  5  2  0
  1  6  1  0
  6  7  2  0
  6  9  1  0
  8 10  1  0
  9 10  2  0
 11 12  2  0
 12 13  1  0
 13 14  2  0
 14 15  1  0
 11 16  1  0
 15 16  2  0
  2 17  1  0
 17 18  1  0
 17 19  2  0
  4 20  1  0
 20 21  2  0
 21 22  1  0
 22 23  2  0
 23 24  1  0
 20 25  1  0
 24 25  2  0
  7 26  1  0
  8 26  2  0
  8 27  1  0
 11 27  1  0
 12 28  1  0
M  END
$$$$
