1YVF_PH7_A_800
     RDKit          3D

 28 30  0  0  0  0  0  0  0  0999 V2000
    9.2138   55.0649   69.7788 C   0  0  0  0  0  0  0  0  0  0  0  0
   10.3174   54.6448   69.2154 C   0  0  0  0  0  0  0  0  0  0  0  0
   11.5499   54.3950   69.8653 N   0  0  0  0  0  0  0  0  0  0  0  0
   11.5038   54.1154   71.2566 C   0  0  0  0  0  0  0  0  0  0  0  0
   10.3680   54.0835   71.8366 O   0  0  0  0  0  0  0  0  0  0  0  0
    7.9856   55.4401   69.1183 C   0  0  0  0  0  0  0  0  0  0  0  0
    7.8614   55.8549   67.8224 C   0  0  0  0  0  0  0  0  0  0  0  0
    5.4755   56.1397   68.0382 C   0  0  0  0  0  0  0  0  0  0  0  0
    6.8119   55.3829   69.8699 C   0  0  0  0  0  0  0  0  0  0  0  0
    5.5925   55.7230   69.3445 C   0  0  0  0  0  0  0  0  0  0  0  0
    4.2140   57.3533   66.4083 C   0  0  0  0  0  0  0  0  0  0  0  0
    2.9902   57.4346   65.7265 C   0  0  0  0  0  0  0  0  0  0  0  0
    2.8305   58.2780   64.6440 C   0  0  0  0  0  0  0  0  0  0  0  0
    3.8530   59.0764   64.1806 C   0  0  0  0  0  0  0  0  0  0  0  0
    5.0773   59.0044   64.8523 C   0  0  0  0  0  0  0  0  0  0  0  0
    5.2171   58.1488   65.9397 C   0  0  0  0  0  0  0  0  0  0  0  0
   10.3069   54.3947   67.7577 C   0  0  0  0  0  0  0  0  0  0  0  0
   11.1182   53.4341   67.1669 O   0  0  0  0  0  0  0  0  0  0  0  0
    9.5580   55.0427   66.9776 O   0  0  0  0  0  0  0  0  0  0  0  0
   12.6688   53.8584   72.0794 C   0  0  0  0  0  0  0  0  0  0  0  0
   13.9100   53.8256   71.4728 C   0  0  0  0  0  0  0  0  0  0  0  0
   15.0759   53.5818   72.1826 C   0  0  0  0  0  0  0  0  0  0  0  0
   15.0004   53.3655   73.5301 C   0  0  0  0  0  0  0  0  0  0  0  0
   13.7653   53.3940   74.1579 C   0  0  0  0  0  0  0  0  0  0  0  0
   12.6343   53.6360   73.4357 C   0  0  0  0  0  0  0  0  0  0  0  0
    6.6382   56.2063   67.2627 C   0  0  0  0  0  0  0  0  0  0  0  0
    4.2707   56.4904   67.4649 O   0  0  0  0  0  0  0  0  0  0  0  0
    1.5134   56.3576   66.3042 Br  0  0  0  0  0  0  0  0  0  0  0  0
  1  2  2  0
  2  3  1  0
  3  4  1  0
  4  5  2  0
  1  6  1  0
  6  7  2  0
  6  9  1  0
  8 10  1  0
  9 10  2  0
 11 12  2  0
 12 13  1  0
 13 14  2  0
 14 15  1  0
 11 16  1  0
 15 16  2  0
  2 17  1  0
 17 18  1  0
 17 19  2  0
  4 20  1  0
 20 21  2  0
 21 22  1  0
 22 23  2  0
 23 24  1  0
 20 25  1  0
 24 25  2  0
  7 26  1  0
  8 26  2  0
  8 27  1  0
 11 27  1  0
 12 28  1  0
M  END
$$$$
