1YVF_PH7_A_800
     RDKit          3D

 28 30  0  0  0  0  0  0  0  0999 V2000
  -12.8655   82.4407   73.4528 C   0  0  0  0  0  0  0  0  0  0  0  0
  -13.8174   82.4289   72.5552 C   0  0  0  0  0  0  0  0  0  0  0  0
  -13.7488   81.8490   71.2657 N   0  0  0  0  0  0  0  0  0  0  0  0
  -13.2084   80.5394   71.1720 C   0  0  0  0  0  0  0  0  0  0  0  0
  -13.0050   79.8835   72.2470 O   0  0  0  0  0  0  0  0  0  0  0  0
  -11.6535   81.6556   73.4489 C   0  0  0  0  0  0  0  0  0  0  0  0
  -10.9573   81.2421   74.5494 C   0  0  0  0  0  0  0  0  0  0  0  0
   -9.2908   80.1346   73.2017 C   0  0  0  0  0  0  0  0  0  0  0  0
  -11.1344   81.2867   72.2078 C   0  0  0  0  0  0  0  0  0  0  0  0
   -9.9862   80.5476   72.0884 C   0  0  0  0  0  0  0  0  0  0  0  0
   -8.1349   78.0504   73.4041 C   0  0  0  0  0  0  0  0  0  0  0  0
   -6.9559   77.3466   73.1145 C   0  0  0  0  0  0  0  0  0  0  0  0
   -6.8572   75.9896   73.3538 C   0  0  0  0  0  0  0  0  0  0  0  0
   -7.8997   75.2618   73.8841 C   0  0  0  0  0  0  0  0  0  0  0  0
   -9.0797   75.9522   74.1774 C   0  0  0  0  0  0  0  0  0  0  0  0
   -9.1583   77.3184   73.9289 C   0  0  0  0  0  0  0  0  0  0  0  0
  -15.1045   83.0745   72.8928 C   0  0  0  0  0  0  0  0  0  0  0  0
  -15.4177   83.4655   74.1886 O   0  0  0  0  0  0  0  0  0  0  0  0
  -15.9831   83.3031   72.0179 O   0  0  0  0  0  0  0  0  0  0  0  0
  -12.8665   79.8817   69.9267 C   0  0  0  0  0  0  0  0  0  0  0  0
  -12.8991   80.6212   68.7599 C   0  0  0  0  0  0  0  0  0  0  0  0
  -12.5919   80.0715   67.5246 C   0  0  0  0  0  0  0  0  0  0  0  0
  -12.2437   78.7516   67.4531 C   0  0  0  0  0  0  0  0  0  0  0  0
  -12.2049   77.9921   68.6115 C   0  0  0  0  0  0  0  0  0  0  0  0
  -12.5120   78.5582   69.8133 C   0  0  0  0  0  0  0  0  0  0  0  0
   -9.7903   80.4919   74.4590 C   0  0  0  0  0  0  0  0  0  0  0  0
   -8.1325   79.3883   73.1319 O   0  0  0  0  0  0  0  0  0  0  0  0
   -5.4554   78.2814   72.3734 Br  0  0  0  0  0  0  0  0  0  0  0  0
  1  2  2  0
  2  3  1  0
  3  4  1  0
  4  5  2  0
  1  6  1  0
  6  7  2  0
  6  9  1  0
  8 10  1  0
  9 10  2  0
 11 12  2  0
 12 13  1  0
 13 14  2  0
 14 15  1  0
 11 16  1  0
 15 16  2  0
  2 17  1  0
 17 18  1  0
 17 19  2  0
  4 20  1  0
 20 21  2  0
 21 22  1  0
 22 23  2  0
 23 24  1  0
 20 25  1  0
 24 25  2  0
  7 26  1  0
  8 26  2  0
  8 27  1  0
 11 27  1  0
 12 28  1  0
M  END
$$$$
