1YVF_PH7_A_800
     RDKit          3D

 28 30  0  0  0  0  0  0  0  0999 V2000
  141.8988  183.7559  299.7455 C   0  0  0  0  0  0  0  0  0  0  0  0
  141.5825  183.7512  301.0152 C   0  0  0  0  0  0  0  0  0  0  0  0
  141.0967  182.6468  301.7556 N   0  0  0  0  0  0  0  0  0  0  0  0
  141.6927  181.3835  301.5010 C   0  0  0  0  0  0  0  0  0  0  0  0
  142.7460  181.0630  302.1454 O   0  0  0  0  0  0  0  0  0  0  0  0
  141.6219  184.7950  298.7818 C   0  0  0  0  0  0  0  0  0  0  0  0
  142.4926  185.2806  297.8473 C   0  0  0  0  0  0  0  0  0  0  0  0
  140.8657  186.8484  297.0017 C   0  0  0  0  0  0  0  0  0  0  0  0
  140.3500  185.3672  298.8056 C   0  0  0  0  0  0  0  0  0  0  0  0
  139.9832  186.3650  297.9403 C   0  0  0  0  0  0  0  0  0  0  0  0
  140.8157  189.1585  296.3839 C   0  0  0  0  0  0  0  0  0  0  0  0
  142.1408  189.5786  296.1924 C   0  0  0  0  0  0  0  0  0  0  0  0
  142.5194  190.8835  296.4421 C   0  0  0  0  0  0  0  0  0  0  0  0
  141.6260  191.8328  296.8877 C   0  0  0  0  0  0  0  0  0  0  0  0
  140.3024  191.4261  297.0820 C   0  0  0  0  0  0  0  0  0  0  0  0
  139.9420  190.1078  296.8248 C   0  0  0  0  0  0  0  0  0  0  0  0
  141.7400  185.0075  301.7796 C   0  0  0  0  0  0  0  0  0  0  0  0
  140.6497  185.7180  302.2663 O   0  0  0  0  0  0  0  0  0  0  0  0
  142.8752  185.4963  302.0282 O   0  0  0  0  0  0  0  0  0  0  0  0
  141.1848  180.4152  300.5497 C   0  0  0  0  0  0  0  0  0  0  0  0
  139.9835  179.7897  300.8234 C   0  0  0  0  0  0  0  0  0  0  0  0
  139.4270  178.8477  299.9717 C   0  0  0  0  0  0  0  0  0  0  0  0
  140.0859  178.5229  298.8191 C   0  0  0  0  0  0  0  0  0  0  0  0
  141.2923  179.1385  298.5256 C   0  0  0  0  0  0  0  0  0  0  0  0
  141.8171  180.0615  299.3812 C   0  0  0  0  0  0  0  0  0  0  0  0
  142.1486  186.2916  296.9573 C   0  0  0  0  0  0  0  0  0  0  0  0
  140.5421  187.8494  296.1092 O   0  0  0  0  0  0  0  0  0  0  0  0
  143.4503  188.3224  295.5744 Br  0  0  0  0  0  0  0  0  0  0  0  0
  1  2  2  0
  2  3  1  0
  3  4  1  0
  4  5  2  0
  1  6  1  0
  6  7  2  0
  6  9  1  0
  8 10  1  0
  9 10  2  0
 11 12  2  0
 12 13  1  0
 13 14  2  0
 14 15  1  0
 11 16  1  0
 15 16  2  0
  2 17  1  0
 17 18  1  0
 17 19  2  0
  4 20  1  0
 20 21  2  0
 21 22  1  0
 22 23  2  0
 23 24  1  0
 20 25  1  0
 24 25  2  0
  7 26  1  0
  8 26  2  0
  8 27  1  0
 11 27  1  0
 12 28  1  0
M  END
$$$$
