8CI0_8EL_CCC_1002
     RDKit          3D

 26 27  0  0  0  0  0  0  0  0999 V2000
  -14.8565   75.3426   41.9433 C   0  0  0  0  0  0  0  0  0  0  0  0
  -14.8643   75.2255   43.3265 C   0  0  0  0  0  0  0  0  0  0  0  0
  -13.7454   74.6364   43.8969 C   0  0  0  0  0  0  0  0  0  0  0  0
  -12.7031   74.1995   43.1320 N   0  0  0  0  0  0  0  0  0  0  0  0
  -13.8012   74.8970   41.1987 N   0  0  0  0  0  0  0  0  0  0  0  0
  -12.7312   74.3290   41.7887 C   0  0  0  0  0  0  0  0  0  0  0  0
  -17.8625   73.4254   43.0994 C   0  0  0  0  0  0  0  0  0  0  0  0
  -11.6255   73.8699   40.9081 C   0  0  0  0  0  0  0  0  0  0  0  0
  -19.2884   71.0865   45.8128 C   0  0  0  0  0  0  0  0  0  0  0  0
  -19.6190   72.4767   45.3234 C   0  0  0  0  0  0  0  0  0  0  0  0
  -16.0854   74.2086   46.3349 C   0  0  0  0  0  0  0  0  0  0  0  0
  -15.9719   75.6467   44.1612 C   0  0  0  0  0  0  0  0  0  0  0  0
  -17.5998   73.7775   44.5513 C   0  0  0  0  0  0  0  0  0  0  0  0
  -18.4100   73.3287   45.4893 C   0  0  0  0  0  0  0  0  0  0  0  0
  -15.9160   75.9593   41.2231 N   0  0  0  0  0  0  0  0  0  0  0  0
  -16.5418   74.5748   45.0070 N   0  0  0  0  0  0  0  0  0  0  0  0
  -22.8009   70.2048   47.8566 O   0  0  0  0  0  0  0  0  0  0  0  0
  -19.2101   68.1614   46.3823 O   0  0  0  0  0  0  0  0  0  0  0  0
  -22.2896   68.2229   49.5010 O   0  0  0  0  0  0  0  0  0  0  0  0
  -21.9076   70.9023   50.1935 O   0  0  0  0  0  0  0  0  0  0  0  0
  -21.7834   68.0746   46.5697 O   0  0  0  0  0  0  0  0  0  0  0  0
  -20.4228   70.3082   45.5933 O   0  0  0  0  0  0  0  0  0  0  0  0
  -20.3044   69.6516   48.2848 O   0  0  0  0  0  0  0  0  0  0  0  0
  -21.8506   69.7560   48.9419 P   0  0  2  0  0  5  0  0  0  0  0  0
  -20.4093   69.0488   46.7212 P   0  0  2  0  0  5  0  0  0  0  0  0
  -17.7715   73.9209   47.0513 S   0  0  0  0  0  0  0  0  0  0  0  0
  1  2  2  0
  2  3  1  0
  3  4  2  0
  1  5  1  0
  5  6  2  0
  4  6  1  0
  8  6  1  6
  9 10  1  0
  2 12  1  0
  7 13  1  6
 10 14  1  6
 13 14  2  0
  1 15  1  0
 11 16  1  0
 12 16  1  6
 13 16  1  0
  9 22  1  1
 17 24  2  0
 24 20  1  1
 23 24  1  0
 19 24  1  0
 18 25  2  0
 25 23  1  0
 25 21  1  1
 22 25  1  0
 11 26  1  6
 14 26  1  0
M  END
$$$$
