7ZZB_KGX_A_302
     RDKit          3D

 51 56  0  0  0  0  0  0  0  0999 V2000
   15.7650    5.3120   11.0750 N   0  0  0  0  0  0  0  0  0  0  0  0
   18.6110    7.7520   15.6740 C   0  0  1  0  0  0  0  0  0  0  0  0
   18.6880   11.2180   12.8560 C   0  0  0  0  0  0  0  0  0  0  0  0
   16.4590    6.8210   12.6330 N   0  0  0  0  0  0  0  0  0  0  0  0
   17.3130   10.8840   12.9460 C   0  0  0  0  0  0  0  0  0  0  0  0
   18.9770    8.1660   13.3650 O   0  0  0  0  0  0  0  0  0  0  0  0
   15.1700    4.0580   10.6350 C   0  0  0  0  0  0  0  0  0  0  0  0
   15.5650   11.5130    8.3220 O   0  0  0  0  0  0  0  0  0  0  0  0
   19.5780    9.1820   14.1470 C   0  0  2  0  0  0  0  0  0  0  0  0
   18.7510    9.2450   15.4270 C   0  0  2  0  0  0  0  0  0  0  0  0
   19.6870   10.4100   13.3810 N   0  0  0  0  0  0  0  0  0  0  0  0
   18.3060    7.2420   14.2680 C   0  0  2  0  0  0  0  0  0  0  0  0
   15.9220    8.3640    9.9370 O   0  0  0  0  0  0  0  0  0  0  0  0
   16.8200    7.2520   13.9660 C   0  0  0  0  0  0  0  0  0  0  0  0
   19.4160    9.9150   16.4870 O   0  0  0  0  0  0  0  0  0  0  0  0
   16.1000    5.5500   12.3670 C   0  0  0  0  0  0  0  0  0  0  0  0
   14.2700    9.3880   12.0360 N   0  0  0  0  0  0  0  0  0  0  0  0
   13.2120    3.2620    9.3680 N   0  0  0  0  0  0  0  0  0  0  0  0
   13.7040    4.2620   10.3310 C   0  0  0  0  0  0  0  0  0  0  0  0
   16.1140    4.6700   13.2280 O   0  0  0  0  0  0  0  0  0  0  0  0
   16.1290   10.7530   12.9220 C   0  0  0  0  0  0  0  0  0  0  0  0
   14.6930   10.4280   12.9800 C   0  0  0  0  0  0  0  0  0  0  0  0
   14.1410    9.8350   10.6390 C   0  0  0  0  0  0  0  0  0  0  0  0
   15.4870    9.7380    9.9530 C   0  0  2  0  0  0  0  0  0  0  0  0
   16.9340    8.2860    8.9390 C   0  0  2  0  0  0  0  0  0  0  0  0
   16.7040    9.4180    7.9300 C   0  0  1  0  0  0  0  0  0  0  0  0
   15.4470   10.1120    8.4760 C   0  0  2  0  0  0  0  0  0  0  0  0
   15.9630    6.3080    7.6690 C   0  0  0  0  0  0  0  0  0  0  0  0
   17.6510    5.0180    7.6140 C   0  0  0  0  0  0  0  0  0  0  0  0
   18.0350    6.1260    8.3500 C   0  0  0  0  0  0  0  0  0  0  0  0
   20.0720    5.3460    8.6390 C   0  0  0  0  0  0  0  0  0  0  0  0
   18.6260    4.0210    7.4140 C   0  0  0  0  0  0  0  0  0  0  0  0
   13.0980    8.6550   12.5150 C   0  0  0  0  0  0  0  0  0  0  0  0
   11.8640    9.4610   12.8550 C   0  0  0  0  0  0  0  0  0  0  0  0
   20.5340   12.1630   12.3620 C   0  0  0  0  0  0  0  0  0  0  0  0
   20.8740   11.0210   13.0660 C   0  0  0  0  0  0  0  0  0  0  0  0
   23.0260   11.4330   12.8660 C   0  0  0  0  0  0  0  0  0  0  0  0
   21.5930   12.9550   11.8840 C   0  0  0  0  0  0  0  0  0  0  0  0
   19.1570   12.2900   12.2480 N   0  0  0  0  0  0  0  0  0  0  0  0
   22.1090   10.6000   13.3580 N   0  0  0  0  0  0  0  0  0  0  0  0
   22.8480   12.5590   12.1750 N   0  0  0  0  0  0  0  0  0  0  0  0
   21.4270   14.0390   11.1160 N   0  0  0  0  0  0  0  0  0  0  0  0
   16.9470    6.9600    8.3700 N   0  0  0  0  0  0  0  0  0  0  0  0
   16.3320    5.1420    7.1920 N   0  0  0  0  0  0  0  0  0  0  0  0
   19.2390    6.3470    8.9010 N   0  0  0  0  0  0  0  0  0  0  0  0
   19.8520    4.2340    7.9360 N   0  0  0  0  0  0  0  0  0  0  0  0
   18.4010    2.8690    6.7610 N   0  0  0  0  0  0  0  0  0  0  0  0
   19.7860    7.1840   16.2490 O   0  0  0  0  0  0  0  0  0  0  0  0
   17.8500   10.2680    7.9610 O   0  0  0  0  0  0  0  0  0  0  0  0
   10.9230    8.9640   13.4480 O   0  0  0  0  0  0  0  0  0  0  0  0
   11.8780   10.7190   12.4840 O   0  0  0  0  0  0  0  0  0  0  0  0
  3  5  1  0
  1  7  1  0
  6  9  1  0
  9 10  1  0
  2 10  1  0
  3 11  1  0
  9 11  1  6
  6 12  1  0
  2 12  1  0
  4 14  1  0
 12 14  1  6
 10 15  1  1
  1 16  1  0
  4 16  1  0
 18 19  1  0
  7 19  1  0
 16 20  2  0
  5 21  3  0
 17 22  1  0
 21 22  1  0
 17 23  1  0
 13 24  1  0
 24 23  1  6
 13 25  1  0
 25 26  1  0
 26 27  1  0
 27  8  1  1
 24 27  1  0
 29 30  2  0
 29 32  1  0
 17 33  1  0
 33 34  1  0
 35 36  2  0
 11 36  1  0
 35 38  1  0
 35 39  1  0
  3 39  2  0
 37 40  2  0
 36 40  1  0
 38 41  2  0
 37 41  1  0
 38 42  1  0
 28 43  1  0
 30 43  1  0
 25 43  1  6
 29 44  1  0
 28 44  2  0
 30 45  1  0
 31 45  2  0
 32 46  2  0
 31 46  1  0
 32 47  1  0
  2 48  1  6
 26 49  1  1
 34 50  1  0
 34 51  2  0
M  END
$$$$
