7OEO_V9Z_AAA_501
     RDKit          3D

 32 34  0  0  0  0  0  0  0  0999 V2000
  -18.4510   -6.6480  -21.9140 N   0  0  0  0  0  0  0  0  0  0  0  0
  -17.4220   -6.4620  -22.9360 C   0  0  0  0  0  0  0  0  0  0  0  0
  -15.0210   -5.8470  -26.4300 C   0  0  0  0  0  0  0  0  0  0  0  0
  -21.9000   -3.2150  -21.4580 C   0  0  0  0  0  0  0  0  0  0  0  0
  -21.4280   -4.5060  -21.9120 N   0  0  0  0  0  0  0  0  0  0  0  0
  -20.1820   -4.9130  -21.7210 C   0  0  0  0  0  0  0  0  0  0  0  0
  -19.3450   -4.2260  -21.1420 O   0  0  0  0  0  0  0  0  0  0  0  0
  -19.8110   -6.2820  -22.2620 C   0  0  0  0  0  0  0  0  0  0  0  0
  -17.5390   -7.4840  -24.0700 C   0  0  0  0  0  0  0  0  0  0  0  0
  -16.7800   -7.0740  -25.3310 C   0  0  0  0  0  0  0  0  0  0  0  0
  -15.6960   -6.2090  -25.2760 C   0  0  0  0  0  0  0  0  0  0  0  0
  -15.4190   -6.3400  -27.6490 C   0  0  0  0  0  0  0  0  0  0  0  0
  -16.4930   -7.2000  -27.7190 C   0  0  0  0  0  0  0  0  0  0  0  0
  -17.1700   -7.5650  -26.5690 C   0  0  0  0  0  0  0  0  0  0  0  0
  -17.1280   -8.8670  -23.5800 C   0  0  0  0  0  0  0  0  0  0  0  0
  -15.7910   -9.1810  -23.3810 C   0  0  0  0  0  0  0  0  0  0  0  0
  -15.4190  -10.4380  -22.9390 C   0  0  0  0  0  0  0  0  0  0  0  0
  -16.3760  -11.3990  -22.6940 C   0  0  0  0  0  0  0  0  0  0  0  0
  -17.7060  -11.0980  -22.8800 C   0  0  0  0  0  0  0  0  0  0  0  0
  -18.0820   -9.8410  -23.3200 C   0  0  0  0  0  0  0  0  0  0  0  0
  -18.2550   -7.0540  -20.6420 C   0  0  0  0  0  0  0  0  0  0  0  0
  -19.1770   -7.1500  -19.8530 O   0  0  0  0  0  0  0  0  0  0  0  0
  -16.8710   -7.3940  -20.1790 C   0  0  0  0  0  0  0  0  0  0  0  0
  -15.9550   -6.3870  -19.8830 C   0  0  0  0  0  0  0  0  0  0  0  0
  -14.6790   -6.6800  -19.4140 C   0  0  0  0  0  0  0  0  0  0  0  0
  -13.7020   -5.5670  -19.1250 C   0  0  0  0  0  0  0  0  0  0  0  0
  -14.3440   -8.0230  -19.2460 C   0  0  0  0  0  0  0  0  0  0  0  0
  -13.0900   -8.3390  -18.7750 O   0  0  0  0  0  0  0  0  0  0  0  0
  -13.0230   -8.3860  -17.3550 C   0  0  0  0  0  0  0  0  0  0  0  0
  -15.2420   -9.0630  -19.5180 C   0  0  0  0  0  0  0  0  0  0  0  0
  -14.8780  -10.5100  -19.3160 C   0  0  0  0  0  0  0  0  0  0  0  0
  -16.5100   -8.7190  -19.9730 C   0  0  0  0  0  0  0  0  0  0  0  0
  1  2  1  0
  4  5  1  0
  5  6  1  0
  6  7  2  0
  1  8  1  0
  6  8  1  0
  2  9  1  0
  9 10  1  0
  3 11  2  0
 10 11  1  0
  3 12  1  0
 12 13  2  0
 13 14  1  0
 10 14  2  0
  9 15  1  0
 15 16  2  0
 16 17  1  0
 17 18  2  0
 18 19  1  0
 15 20  1  0
 19 20  2  0
  1 21  1  0
 21 22  2  0
 21 23  1  0
 23 24  2  0
 24 25  1  0
 25 26  1  0
 25 27  2  0
 27 28  1  0
 28 29  1  0
 27 30  1  0
 30 31  1  0
 23 32  1  0
 30 32  2  0
M  END
$$$$
