
     RDKit          3D

 11 12  0  0  0  0  0  0  0  0999 V2000
   31.9205   38.5460   26.8419 C   0  0  0  0  0  0  0  0  0  0  0  0
   32.4037   37.2932   26.7482 N   0  0  0  0  0  0  0  0  0  0  0  0
   33.7065   37.2003   27.0309 C   0  0  0  0  0  0  0  0  0  0  0  0
   34.2725   35.9437   26.9479 N   0  0  0  0  0  0  0  0  0  0  0  0
   34.5377   38.2094   27.3559 N   0  0  0  0  0  0  0  0  0  0  0  0
   34.0191   39.4363   27.4412 C   0  0  0  0  0  0  0  0  0  0  0  0
   34.8736   40.4377   27.7856 O   0  0  0  0  0  0  0  0  0  0  0  0
   32.6980   39.6272   27.1841 C   0  0  0  0  0  0  0  0  0  0  0  0
   31.8421   40.6765   27.1645 N   0  0  0  0  0  0  0  0  0  0  0  0
   30.5991   40.2856   26.8229 N   0  0  0  0  0  0  0  0  0  0  0  0
   30.6382   38.9679   26.6216 N   0  0  0  0  0  0  0  0  0  0  0  0
  1  2  4  0
  2  3  4  0
  3  4  1  0
  3  5  4  0
  5  6  4  0
  6  7  1  0
  1  8  4  0
  6  8  4  0
  8  9  4  0
  9 10  4  0
  1 11  4  0
 10 11  4  0
M  END
