1MZC_BNE_B_1003
     RDKit          3D

 35 38  0  0  0  0  0  0  0  0999 V2000
   20.3911  132.2674   -0.4697 C   0  0  1  0  0  0  0  0  0  0  0  0
   19.4338  132.3079   -1.7608 C   0  0  0  0  0  0  0  0  0  0  0  0
   19.6285  132.5690    0.9240 C   0  0  0  0  0  0  0  0  0  0  0  0
   21.1306  130.8434   -0.4807 C   0  0  0  0  0  0  0  0  0  0  0  0
   21.5272  133.3722   -0.5769 C   0  0  0  0  0  0  0  0  0  0  0  0
   18.0617  132.6297   -1.6132 C   0  0  0  0  0  0  0  0  0  0  0  0
   19.8803  132.0525   -3.1084 C   0  0  0  0  0  0  0  0  0  0  0  0
   18.6599  131.6601    1.4503 N   0  0  0  0  0  0  0  0  0  0  0  0
   19.8883  133.6168    1.5527 O   0  0  0  0  0  0  0  0  0  0  0  0
   20.2785  129.5529   -0.4499 C   0  0  0  0  0  0  0  0  0  0  0  0
   21.0768  134.8097   -0.9174 C   0  0  0  0  0  0  0  0  0  0  0  0
   17.1399  132.7065   -2.7065 C   0  0  0  0  0  0  0  0  0  0  0  0
   18.9740  132.1207   -4.2152 C   0  0  0  0  0  0  0  0  0  0  0  0
   18.2565  130.3661    0.8856 C   0  0  0  0  0  0  0  0  0  0  0  0
   17.9887  131.9918    2.7100 C   0  0  0  0  0  0  0  0  0  0  0  0
   19.4182  129.3826    0.8037 C   0  0  0  0  0  0  0  0  0  0  0  0
   15.7732  133.0377   -2.4696 O   0  0  0  0  0  0  0  0  0  0  0  0
   17.6047  132.4468   -4.0161 C   0  0  0  0  0  0  0  0  0  0  0  0
   15.5263  134.1259   -1.6025 C   0  0  0  0  0  0  0  0  0  0  0  0
   15.3223  133.9797   -0.1877 C   0  0  0  0  0  0  0  0  0  0  0  0
   15.4980  135.4242   -2.1853 C   0  0  0  0  0  0  0  0  0  0  0  0
   15.0880  135.1306    0.6050 C   0  0  0  0  0  0  0  0  0  0  0  0
   15.4386  132.7107    0.4670 C   0  0  0  0  0  0  0  0  0  0  0  0
   15.2728  136.5981   -1.3977 C   0  0  0  0  0  0  0  0  0  0  0  0
   15.0650  136.4202    0.0128 C   0  0  0  0  0  0  0  0  0  0  0  0
   15.5893  131.6797    0.9629 N   0  0  0  0  0  0  0  0  0  0  0  0
   15.2437  138.0172   -2.0268 C   0  0  2  0  0  0  0  0  0  0  0  0
   14.7789  138.0282   -3.4832 C   0  0  0  0  0  0  0  0  0  0  0  0
   16.6550  138.6873   -1.9521 C   0  0  0  0  0  0  0  0  0  0  0  0
   14.2918  138.8498   -1.2852 N   0  0  0  0  0  0  0  0  0  0  0  0
   13.4711  137.8939   -3.9151 N   0  0  0  0  0  0  0  0  0  0  0  0
   15.4987  138.1580   -4.6725 C   0  0  0  0  0  0  0  0  0  0  0  0
   13.5137  137.9459   -5.2681 C   0  0  0  0  0  0  0  0  0  0  0  0
   12.2133  137.7211   -3.2036 C   0  0  0  0  0  0  0  0  0  0  0  0
   14.7112  138.1082   -5.7884 N   0  0  0  0  0  0  0  0  0  0  0  0
  1  2  1  0
  1  3  1  0
  1  4  1  0
  1  5  1  6
  2  6  2  0
  2  7  1  0
  3  8  1  0
  3  9  2  0
  4 10  1  0
  5 11  1  0
  6 12  1  0
  7 13  2  0
  8 14  1  0
  8 15  1  0
 10 16  1  0
 14 16  1  0
 12 17  1  0
 12 18  2  0
 13 18  1  0
 17 19  1  0
 19 20  2  0
 19 21  1  0
 20 22  1  0
 20 23  1  0
 21 24  2  0
 22 25  2  0
 24 25  1  0
 23 26  3  0
 24 27  1  0
 27 28  1  0
 27 29  1  6
 27 30  1  0
 28 31  1  0
 28 32  2  0
 31 33  1  0
 31 34  1  0
 32 35  1  0
 33 35  2  0
M  END
