6ZXQ_IMO_A_503
     RDKit          3D

 41 43  0  0  0  0  0  0  0  0999 V2000
  -16.1542    2.0029    9.4733 P   0  0  2  0  0  5  0  0  0  0  0  0
  -15.9584    3.2407   10.6090 O   0  0  0  0  0  0  0  0  0  0  0  0
  -16.6164   -0.1974    5.6508 C   0  0  0  0  0  0  0  0  0  0  0  0
  -16.3033    2.1412    1.8691 C   0  0  1  0  0  0  0  0  0  0  0  0
  -14.8861    1.9356    1.3420 C   0  0  1  0  0  0  0  0  0  0  0  0
  -15.0813    0.8995    0.2606 C   0  0  1  0  0  0  0  0  0  0  0  0
  -16.3192    0.1349    0.7595 C   0  0  1  0  0  0  0  0  0  0  0  0
  -15.9254   -1.1839    1.4366 C   0  0  1  0  0  0  0  0  0  0  0  0
  -17.6899    1.3161    9.6648 O   0  0  0  0  0  0  0  0  0  0  0  0
  -15.0927    0.9479    9.6964 O   0  0  0  0  0  0  0  0  0  0  0  0
  -16.8477   -3.2249    2.6181 P   0  0  1  0  0  5  0  0  0  0  0  0
  -18.1878   -3.9310    1.8635 O   0  0  0  0  0  0  0  0  0  0  0  0
  -16.8990   -3.5939    4.2716 O   0  0  0  0  0  0  0  0  0  0  0  0
  -15.5832   -3.7859    2.0028 O   0  0  0  0  0  0  0  0  0  0  0  0
  -16.9088   -1.5368    2.3806 O   0  0  0  0  0  0  0  0  0  0  0  0
  -17.0280    0.9427    1.6832 O   0  0  0  0  0  0  0  0  0  0  0  0
  -16.2792    2.5158    3.2848 N   0  0  0  0  0  0  0  0  0  0  0  0
  -16.3618    1.7352    4.3715 C   0  0  0  0  0  0  0  0  0  0  0  0
  -16.5803    0.3991    4.4221 N   0  0  0  0  0  0  0  0  0  0  0  0
  -16.4279    0.5438    6.7900 N   0  0  0  0  0  0  0  0  0  0  0  0
  -16.2043    1.8929    6.7350 C   0  0  0  0  0  0  0  0  0  0  0  0
  -16.0038    2.6558    7.8880 O   0  0  0  0  0  0  0  0  0  0  0  0
  -16.1751    2.4851    5.4815 C   0  0  0  0  0  0  0  0  0  0  0  0
  -15.9536    3.7715    5.1537 N   0  0  0  0  0  0  0  0  0  0  0  0
  -16.0209    3.7485    3.7935 C   0  0  0  0  0  0  0  0  0  0  0  0
  -14.2709    3.1183    0.8857 O   0  0  0  0  0  0  0  0  0  0  0  0
  -15.3092    1.4795   -1.0041 O   0  0  0  0  0  0  0  0  0  0  0  0
  -16.7460    3.1659   11.2048 H   0  0  0  0  0  0  0  0  0  0  0  0
  -16.7893   -1.2618    5.7256 H   0  0  0  0  0  0  0  0  0  0  0  0
  -16.8236    2.9405    1.2951 H   0  0  0  0  0  0  0  0  0  0  0  0
  -14.2520    1.4941    2.1439 H   0  0  0  0  0  0  0  0  0  0  0  0
  -14.1820    0.2481    0.1855 H   0  0  0  0  0  0  0  0  0  0  0  0
  -16.9906   -0.1053   -0.0944 H   0  0  0  0  0  0  0  0  0  0  0  0
  -15.8391   -1.9667    0.6495 H   0  0  0  0  0  0  0  0  0  0  0  0
  -14.9388   -1.0446    1.9332 H   0  0  0  0  0  0  0  0  0  0  0  0
  -18.0789    1.7710   10.4531 H   0  0  0  0  0  0  0  0  0  0  0  0
  -17.8164   -4.3966    1.0719 H   0  0  0  0  0  0  0  0  0  0  0  0
  -17.8456   -3.8101    4.4619 H   0  0  0  0  0  0  0  0  0  0  0  0
  -15.8577    4.6257    3.1799 H   0  0  0  0  0  0  0  0  0  0  0  0
  -14.8645    3.5527    0.2200 H   0  0  0  0  0  0  0  0  0  0  0  0
  -15.6527    2.4013   -0.8684 H   0  0  0  0  0  0  0  0  0  0  0  0
  1  2  1  1
  4  5  1  0
  5  6  1  0
  6  7  1  0
  7  8  1  0
  1  9  1  0
  1 10  2  0
 11 12  1  6
 11 13  1  0
 11 14  2  0
  8 15  1  0
 11 15  1  0
  4 16  1  0
  7 16  1  0
  4 17  1  0
 17 18  1  0
  3 19  2  0
 18 19  1  0
  3 20  1  0
 20 21  2  0
  1 22  1  0
 21 22  1  0
 18 23  2  0
 21 23  1  0
 23 24  1  0
 17 25  1  0
 24 25  2  0
  5 26  1  0
  6 27  1  0
  2 28  1  0
  3 29  1  0
  4 30  1  6
  5 31  1  1
  6 32  1  6
  7 33  1  6
  8 34  1  6
  8 35  1  0
  9 36  1  0
 12 37  1  0
 13 38  1  0
 25 39  1  0
 26 40  1  0
 27 41  1  0
M  END
