1HNN_SKF_A_3001
     RDKit          3D

 14 15  0  0  0  0  0  0  0  0999 V2000
    4.9286   43.5744   21.7871 C   0  0  0  0  0  0  0  0  0  0  0  0
    5.3022   43.4319   20.4609 C   0  0  0  0  0  0  0  0  0  0  0  0
    6.0425   42.3334   20.0532 C   0  0  0  0  0  0  0  0  0  0  0  0
    6.4001   41.3913   20.9755 C   0  0  0  0  0  0  0  0  0  0  0  0
    6.4647   42.2440   18.3599 S   0  0  2  0  0  0  0  0  0  0  0  0
    6.0164   41.5475   22.3106 C   0  0  0  0  0  0  0  0  0  0  0  0
    5.2833   42.6240   22.7451 C   0  0  0  0  0  0  0  0  0  0  0  0
    6.8461   40.8564   17.9800 O   0  0  0  0  0  0  0  0  0  0  0  0
    7.6253   43.1944   18.1116 O   0  0  0  0  0  0  0  0  0  0  0  0
    5.1058   42.7964   17.4429 N   0  0  0  0  0  0  0  0  0  0  0  0
    6.4248   40.5050   23.2728 C   0  0  0  0  0  0  0  0  0  0  0  0
    5.5411   41.8501   25.0555 C   0  0  0  0  0  0  0  0  0  0  0  0
    4.8577   42.8250   24.1508 C   0  0  0  0  0  0  0  0  0  0  0  0
    5.6310   40.5340   24.4829 N   0  0  0  0  0  0  0  0  0  0  0  0
  1  2  2  0
  2  3  1  0
  3  4  2  0
  3  5  1  0
  4  6  1  0
  1  7  1  0
  6  7  2  0
  5  8  2  0
  5  9  2  0
  5 10  1  6
  6 11  1  0
  7 13  1  0
 12 13  1  0
 11 14  1  0
 12 14  1  0
M  END
$$$$
