1HNN_SKF_A_3001
     RDKit          3D

 14 15  0  0  0  0  0  0  0  0999 V2000
    6.2015   41.1855   15.3018 C   0  0  0  0  0  0  0  0  0  0  0  0
    5.4023   42.0591   16.0207 C   0  0  0  0  0  0  0  0  0  0  0  0
    5.7468   42.4262   17.3121 C   0  0  0  0  0  0  0  0  0  0  0  0
    6.8852   41.9161   17.8686 C   0  0  0  0  0  0  0  0  0  0  0  0
    4.6746   43.5329   18.1361 S   0  0  2  0  0  0  0  0  0  0  0  0
    7.6826   41.0355   17.1319 C   0  0  0  0  0  0  0  0  0  0  0  0
    7.3683   40.6530   15.8513 C   0  0  0  0  0  0  0  0  0  0  0  0
    3.2540   43.1244   17.9629 O   0  0  0  0  0  0  0  0  0  0  0  0
    4.8957   44.9223   17.5595 O   0  0  0  0  0  0  0  0  0  0  0  0
    5.1217   43.5619   19.8071 N   0  0  0  0  0  0  0  0  0  0  0  0
    8.9038   40.5088   17.7730 C   0  0  0  0  0  0  0  0  0  0  0  0
    9.2395   39.0715   15.8785 C   0  0  0  0  0  0  0  0  0  0  0  0
    8.1874   39.7225   15.0386 C   0  0  0  0  0  0  0  0  0  0  0  0
    9.8472   39.9844   16.8087 N   0  0  0  0  0  0  0  0  0  0  0  0
  1  2  2  0
  2  3  1  0
  3  4  2  0
  3  5  1  0
  4  6  1  0
  1  7  1  0
  6  7  2  0
  5  8  2  0
  5  9  2  0
  5 10  1  1
  6 11  1  0
  7 13  1  0
 12 13  1  0
 11 14  1  0
 12 14  1  0
M  END
$$$$
