1NAV_IH5_A_600
     RDKit          3D

 23 24  0  0  0  0  0  0  0  0999 V2000
   43.3777   12.9083   17.8694 O   0  0  0  0  0  0  0  0  0  0  0  0
   44.3796   13.7812   18.2913 C   0  0  0  0  0  0  0  0  0  0  0  0
   45.5910   13.3976   18.1998 O   0  0  0  0  0  0  0  0  0  0  0  0
   44.0727   15.1368   18.8407 C   0  0  0  0  0  0  0  0  0  0  0  0
   45.3771   15.7537   19.1840 C   0  0  0  0  0  0  0  0  0  0  0  0
   45.8161   16.8565   18.4970 C   0  0  0  0  0  0  0  0  0  0  0  0
   47.0255   17.4501   18.7953 C   0  0  0  0  0  0  0  0  0  0  0  0
   47.8743   16.9820   19.7959 C   0  0  0  0  0  0  0  0  0  0  0  0
   49.0592   17.5848   20.0638 O   0  0  0  0  0  0  0  0  0  0  0  0
   49.9190   18.2712   19.2302 C   0  0  0  0  0  0  0  0  0  0  0  0
   50.3735   17.6911   18.0391 C   0  0  0  0  0  0  0  0  0  0  0  0
   51.2378   18.3656   17.1844 C   0  0  0  0  0  0  0  0  0  0  0  0
   51.6931   19.6298   17.4568 C   0  0  0  0  0  0  0  0  0  0  0  0
   52.5506   20.2471   16.5674 O   0  0  0  0  0  0  0  0  0  0  0  0
   51.2569   20.2151   18.6241 C   0  0  0  0  0  0  0  0  0  0  0  0
   50.3908   19.5425   19.4827 C   0  0  0  0  0  0  0  0  0  0  0  0
   51.7429   21.5868   18.9333 C   0  0  2  0  0  0  0  0  0  0  0  0
   51.1765   22.6350   18.0021 C   0  0  0  0  0  0  0  0  0  0  0  0
   53.2552   21.6034   18.8145 C   0  0  0  0  0  0  0  0  0  0  0  0
   47.4021   15.8582   20.4806 C   0  0  0  0  0  0  0  0  0  0  0  0
   46.1853   15.2670   20.1754 C   0  0  0  0  0  0  0  0  0  0  0  0
   48.3053   15.1254   21.7879 Cl  0  0  0  0  0  0  0  0  0  0  0  0
   47.4228   18.8829   17.8437 Cl  0  0  0  0  0  0  0  0  0  0  0  0
  1  2  1  0
  2  3  2  0
  2  4  1  0
  4  5  1  0
  5  6  2  0
  6  7  1  0
  7  8  2  0
  8  9  1  0
  9 10  1  0
 10 11  2  0
 11 12  1  0
 12 13  2  0
 13 14  1  0
 13 15  1  0
 10 16  1  0
 15 16  2  0
 15 17  1  0
 17 18  1  6
 17 19  1  0
  8 20  1  0
  5 21  1  0
 20 21  2  0
 20 22  1  0
  7 23  1  0
M  END
$$$$
