1NAV_IH5_A_600
     RDKit          3D

 23 24  0  0  0  0  0  0  0  0999 V2000
   38.5083  -10.1518   40.1693 O   0  0  0  0  0  0  0  0  0  0  0  0
   38.7167   -8.7776   40.0592 C   0  0  0  0  0  0  0  0  0  0  0  0
   38.8634   -8.1026   41.1297 O   0  0  0  0  0  0  0  0  0  0  0  0
   38.7714   -8.0859   38.7355 C   0  0  0  0  0  0  0  0  0  0  0  0
   38.7690   -6.6311   39.0239 C   0  0  0  0  0  0  0  0  0  0  0  0
   39.9304   -6.0038   39.3964 C   0  0  0  0  0  0  0  0  0  0  0  0
   39.9566   -4.6518   39.6709 C   0  0  0  0  0  0  0  0  0  0  0  0
   38.8275   -3.8396   39.5927 C   0  0  0  0  0  0  0  0  0  0  0  0
   38.8837   -2.5137   39.8720 O   0  0  0  0  0  0  0  0  0  0  0  0
   38.9513   -1.8603   41.0861 C   0  0  0  0  0  0  0  0  0  0  0  0
   39.0533   -2.5835   42.2813 C   0  0  0  0  0  0  0  0  0  0  0  0
   39.1248   -1.9455   43.5143 C   0  0  0  0  0  0  0  0  0  0  0  0
   39.0992   -0.5797   43.6309 C   0  0  0  0  0  0  0  0  0  0  0  0
   39.1739   -0.0055   44.8847 O   0  0  0  0  0  0  0  0  0  0  0  0
   38.9986    0.1470   42.4660 C   0  0  0  0  0  0  0  0  0  0  0  0
   38.9270   -0.4887   41.2289 C   0  0  0  0  0  0  0  0  0  0  0  0
   38.9693    1.6304   42.5768 C   0  0  2  0  0  0  0  0  0  0  0  0
   37.7275    2.2411   41.9674 C   0  0  0  0  0  0  0  0  0  0  0  0
   40.1835    2.1938   41.8628 C   0  0  0  0  0  0  0  0  0  0  0  0
   37.6584   -4.5039   39.2100 C   0  0  0  0  0  0  0  0  0  0  0  0
   37.6396   -5.8631   38.9354 C   0  0  0  0  0  0  0  0  0  0  0  0
   36.1341   -3.6634   39.0309 Cl  0  0  0  0  0  0  0  0  0  0  0  0
   41.5384   -3.9946   40.0977 Cl  0  0  0  0  0  0  0  0  0  0  0  0
  1  2  1  0
  2  3  2  0
  2  4  1  0
  4  5  1  0
  5  6  2  0
  6  7  1  0
  7  8  2  0
  8  9  1  0
  9 10  1  0
 10 11  2  0
 11 12  1  0
 12 13  2  0
 13 14  1  0
 13 15  1  0
 10 16  1  0
 15 16  2  0
 15 17  1  0
 17 18  1  6
 17 19  1  0
  8 20  1  0
  5 21  1  0
 20 21  2  0
 20 22  1  0
  7 23  1  0
M  END
$$$$
