1NAV_IH5_A_600
     RDKit          3D

 23 24  0  0  0  0  0  0  0  0999 V2000
   27.0606   27.8313   22.7646 O   0  0  0  0  0  0  0  0  0  0  0  0
   28.4396   28.0158   22.8561 C   0  0  0  0  0  0  0  0  0  0  0  0
   29.0264   27.6537   23.9274 O   0  0  0  0  0  0  0  0  0  0  0  0
   29.2359   28.6194   21.7446 C   0  0  0  0  0  0  0  0  0  0  0  0
   30.6444   28.6491   22.2081 C   0  0  0  0  0  0  0  0  0  0  0  0
   31.0449   29.5864   23.1257 C   0  0  0  0  0  0  0  0  0  0  0  0
   32.3490   29.6369   23.5738 C   0  0  0  0  0  0  0  0  0  0  0  0
   33.3366   28.7577   23.1354 C   0  0  0  0  0  0  0  0  0  0  0  0
   34.6114   28.8342   23.5917 O   0  0  0  0  0  0  0  0  0  0  0  0
   35.7198   29.4468   23.0425 C   0  0  0  0  0  0  0  0  0  0  0  0
   36.9233   29.5171   23.7555 C   0  0  0  0  0  0  0  0  0  0  0  0
   38.0518   30.1275   23.2204 C   0  0  0  0  0  0  0  0  0  0  0  0
   38.0517   30.6930   21.9714 C   0  0  0  0  0  0  0  0  0  0  0  0
   39.2054   31.2845   21.4958 O   0  0  0  0  0  0  0  0  0  0  0  0
   36.8766   30.6335   21.2566 C   0  0  0  0  0  0  0  0  0  0  0  0
   35.7441   30.0226   21.7894 C   0  0  0  0  0  0  0  0  0  0  0  0
   36.8612   31.2433   19.8997 C   0  0  2  0  0  0  0  0  0  0  0  0
   35.8078   32.3178   19.7499 C   0  0  0  0  0  0  0  0  0  0  0  0
   36.5855   30.1530   18.8815 C   0  0  0  0  0  0  0  0  0  0  0  0
   32.9012   27.8124   22.2018 C   0  0  0  0  0  0  0  0  0  0  0  0
   31.5888   27.7675   21.7561 C   0  0  0  0  0  0  0  0  0  0  0  0
   33.9785   26.6026   21.5402 Cl  0  0  0  0  0  0  0  0  0  0  0  0
   32.6885   30.8778   24.7827 Cl  0  0  0  0  0  0  0  0  0  0  0  0
  1  2  1  0
  2  3  2  0
  2  4  1  0
  4  5  1  0
  5  6  2  0
  6  7  1  0
  7  8  2  0
  8  9  1  0
  9 10  1  0
 10 11  2  0
 11 12  1  0
 12 13  2  0
 13 14  1  0
 13 15  1  0
 10 16  1  0
 15 16  2  0
 15 17  1  0
 17 18  1  1
 17 19  1  0
  8 20  1  0
  5 21  1  0
 20 21  2  0
 20 22  1  0
  7 23  1  0
M  END
$$$$
