1TT1_KAI_A_998
     RDKit          3D

 15 15  0  0  0  0  0  0  0  0999 V2000
    6.0880   14.9809   12.8666 N   0  0  0  0  0  0  0  0  0  0  0  0
    5.3157   13.6545   12.7977 C   0  0  0  0  0  0  0  0  0  0  0  0
    3.6441   11.4963   13.9497 C   0  0  0  0  0  0  0  0  0  0  0  0
    4.5297   11.5927   16.2283 C   0  0  0  0  0  0  0  0  0  0  0  0
    6.5484   15.1713   14.2316 C   0  0  1  0  0  0  0  0  0  0  0  0
    5.6120   14.3623   15.0933 C   0  0  1  0  0  0  0  0  0  0  0  0
    4.1717   15.0076   15.4009 C   0  0  0  0  0  0  0  0  0  0  0  0
    5.4771   13.1048   14.2901 C   0  0  1  0  0  0  0  0  0  0  0  0
    4.2956   16.4319   15.9583 C   0  0  0  0  0  0  0  0  0  0  0  0
    4.4705   11.9971   14.8041 C   0  0  0  0  0  0  0  0  0  0  0  0
    8.0783   14.8395   14.4259 C   0  0  0  0  0  0  0  0  0  0  0  0
    8.8022   15.0582   13.4295 O   0  0  0  0  0  0  0  0  0  0  0  0
    3.3133   17.1556   15.7418 O   0  0  0  0  0  0  0  0  0  0  0  0
    5.3329   16.7667   16.5724 O   0  0  0  0  0  0  0  0  0  0  0  0
    8.4278   14.4215   15.5719 O   0  0  0  0  0  0  0  0  0  0  0  0
  1  2  1  0
  1  5  1  0
  5  6  1  0
  6  7  1  6
  2  8  1  0
  6  8  1  0
  7  9  1  0
  3 10  2  0
  4 10  1  0
  8 10  1  1
  5 11  1  6
 11 12  2  0
  9 13  1  0
  9 14  2  0
 11 15  1  0
M  END
